Auto-Transcript Start Time:  15:13:29, 20 May 2024 GMT Daylight Time 
Current Directory: "C:\Users\kebl7595\Desktop\CFD\Runs\Actual Data\24 degree"

              Welcome to ANSYS Fluent 2023 R1

              Copyright 1987-2023 ANSYS, Inc. All Rights Reserved.
              Unauthorized use, distribution or duplication is prohibited.
              This product is subject to U.S. laws governing export and re-export.
              For full Legal Notice, see documentation.

Build Time: Nov 28 2022 09:52:02 EST  Build Id: 10208  
 
Connected License Server List:	1055@ansyslic.eng.ox.ac.uk

*********************************************
Info: Your license enables 4-way parallel execution.
For faster simulations, please start the application with the appropriate parallel options.
*********************************************


     --------------------------------------------------------------
     This is an academic version of ANSYS FLUENT. Usage of this product
     license is limited to the terms and conditions specified in your ANSYS
     license form, additional terms section.
     --------------------------------------------------------------
Host spawning Node 0 on machine "Engs-30669" (win64).

------------------------------------------------------------------------------------
ID    Hostname    Core  O.S.         PID    Vendor                                 
------------------------------------------------------------------------------------
n0    Engs-30669  1/32  Windows-x64  46132  13th Gen Intel(R) Core(TM) i9-13900    
host  Engs-30669        Windows-x64  17632  13th Gen Intel(R) Core(TM) i9-13900    

MPI Option Selected: intel
------------------------------------------------------------------------------------

Cleanup script file is C:\\Users\\kebl7595\\Desktop\\CFD\\Runs\\Actual Data\\24 degree\\cleanup-fluent-Engs-30669-17632.bat
QA Service Message :
QA Services Agreement Enabled. This application is included in the scope of an ANSYS QA Services Agreement.
Posting ANSYS Product Improvement Program startup data
Done.

Reading journal file C:/Users/kebl7595/Desktop/CFD/Runs/Actual Data/24 degree/project1.jou...

> /file/set-batch-options no no no 

> 
define/                 parametric-study/       solve/
display/                plot/                   surface/
exit                    preferences/            switch-to-meshing-mode
file/                   print-license-usage     turbo-workflow/
mesh/                   report/                 views/
parallel/               server/

> /file/import/cgns/mesh  "./project1.cgns"
Engs-30669 has other FLUENT parallel processes running.                       Process affinity not being set.

Importing "./project1.cgns"

Opening library "C:\\PROGRA~1\\ANSYSI~1\\v231\\fluent\\fluent23.1.0\\vki\\win64\\devtools4.4.6.dll"... done.

Read    17864 nodes
   12996 hexahedral cells, zone  1
    9462 quadrilateral wall faces, zone  2.
   33972 quadrilateral interior faces, zone  3.
     282 quadrilateral interface faces, zone  4.
       6 quadrilateral wall faces, zone  5.

Building...
     mesh
     materials,
     interface,
     domains,
     zones,
	default_exterior-1
	interface-default_subface
	default_interior-1
	default_subface
	default
     parallel,
The automatic selection for flux type has changed to Rhie-Chow: momentum based.

Done.


> 
adjoint/                parallel/               server/
define/                 parametric-study/       solve/
display/                plot/                   surface/
exit                    preferences/            turbo-workflow/
file/                   print-license-usage     views/
mesh/                   report/

> /define/models/solver/density-based-implicit yes

> 
adjoint/                parallel/               server/
define/                 parametric-study/       solve/
display/                plot/                   surface/
exit                    preferences/            turbo-workflow/
file/                   print-license-usage     views/
mesh/                   report/

> /define/models/energy? yes yes invalid command [yes]
yes

> /define/models/viscous/inviscid yes

> 
adjoint/                parallel/               server/
define/                 parametric-study/       solve/
display/                plot/                   surface/
exit                    preferences/            turbo-workflow/
file/                   print-license-usage     views/
mesh/                   report/

> /define/materials/change-create air air air is a fluid
yes 
Density
ideal-gas no data required.

no no no no 

> 
adjoint/                parallel/               server/
define/                 parametric-study/       solve/
display/                plot/                   surface/
exit                    preferences/            turbo-workflow/
file/                   print-license-usage     views/
mesh/                   report/

> /mesh/modify-zones/sep-face-zone-angle 2 90 yes

 4332 faces in contiguous region 0
 228 faces in contiguous region 1
 342 faces in contiguous region 2
 4332 faces in contiguous region 3
 228 faces in contiguous region 4
 Separates zone 2 into 5 zone(s).
Updating new zone information...
   created new zone default_subface:010 from default_subface
   created new zone default_subface:009 from default_subface
   created new zone default_subface:008 from default_subface
   created new zone default_subface:007 from default_subface
done.

> 
adjoint/                parallel/               server/
define/                 parametric-study/       solve/
display/                plot/                   surface/
exit                    preferences/            turbo-workflow/
file/                   print-license-usage     views/
mesh/                   report/

> /define/boundary-conditions/zone-name  5   te

> /define/boundary-conditions/zone-name  7 wing

> /define/boundary-conditions/zone-name  2 sym1

> /define/boundary-conditions/zone-name  9 sym2

> 
adjoint/                parallel/               server/
define/                 parametric-study/       solve/
display/                plot/                   surface/
exit                    preferences/            turbo-workflow/
file/                   print-license-usage     views/
mesh/                   report/

> /define/boundary-conditions/zone-name  8 far1

> /define/boundary-conditions/zone-name 10 far2

> 
adjoint/                parallel/               server/
define/                 parametric-study/       solve/
display/                plot/                   surface/
exit                    preferences/            turbo-workflow/
file/                   print-license-usage     views/
mesh/                   report/

> /define/boundary-conditions/zone-type  8 pressure-far-field

> /define/boundary-conditions/zone-type 10 pressure-far-field

> /define/boundary-conditions/zone-type  2 symmetry

> /define/boundary-conditions/zone-type  9 symmetry

> 
adjoint/                parallel/               server/
define/                 parametric-study/       solve/
display/                plot/                   surface/
exit                    preferences/            turbo-workflow/
file/                   print-license-usage     views/
mesh/                   report/

> /define/boundary-conditions/pressure-far-field (far2 far1)
far1 no 0 no 0.1 no 300 yes no 0.91355 no 0.40674 no 0

> /define/boundary-conditions/pressure-far-field (far2 far1)
far2 no 0 no 0.1 no 300 yes no 0.91355 no 0.40674 no 0

> 
adjoint/                parallel/               server/
define/                 parametric-study/       solve/
display/                plot/                   surface/
exit                    preferences/            turbo-workflow/
file/                   print-license-usage     views/
mesh/                   report/

> /solve/initialize/compute-defaults/pressure-far-field (far2 far1)
far1

> /solve/initialize/initialize-flow

> 
adjoint/                parallel/               server/
define/                 parametric-study/       solve/
display/                plot/                   surface/
exit                    preferences/            turbo-workflow/
file/                   print-license-usage     views/
mesh/                   report/

> /solve/monitors/residual/convergence-criteria 1.e-9 1.e-9 1.e-9 1.e-9 1.e-9

> /solve/iterate 2000

  iter  continuity  x-velocity  y-velocity  z-velocity      energy     time/iter
     1  1.0000e+00  1.0000e+00  1.0000e+00  0.0000e+00  1.0000e+00  0:00:00 1999
     2  5.2031e-01  4.7655e-01  4.2295e-01  1.0000e+00  5.2085e-01  0:00:00 1998
     3  2.6211e-01  2.2308e-01  2.3358e-01  7.9858e-01  2.6232e-01  0:00:00 1997
     4  1.5920e-01  1.4439e-01  1.3554e-01  5.6327e-01  1.5927e-01  0:00:00 1996
     5  1.2039e-01  1.0204e-01  8.4436e-02  5.3119e-01  1.2046e-01  0:33:15 1995
     6  9.9080e-02  7.1749e-02  5.8695e-02  6.8469e-01  9.9188e-02  0:26:35 1994
     7  8.5161e-02  5.2556e-02  4.4419e-02  7.2882e-01  8.5280e-02  0:21:16 1993
     8  7.5894e-02  4.1327e-02  3.5104e-02  7.5081e-01  7.6009e-02  0:17:00 1992
     9  6.9466e-02  3.4602e-02  2.8800e-02  7.6371e-01  6.9567e-02  0:13:36 1991
    10  6.5095e-02  3.0827e-02  2.4476e-02  7.6188e-01  6.5177e-02  0:10:52 1990
    11  6.2620e-02  2.9036e-02  2.1446e-02  7.5054e-01  6.2683e-02  0:08:41 1989

  iter  continuity  x-velocity  y-velocity  z-velocity      energy     time/iter
    12  6.1518e-02  2.8493e-02  1.9353e-02  7.3890e-01  6.1563e-02  0:06:57 1988
    13  6.1453e-02  2.8755e-02  1.7955e-02  7.4195e-01  6.1481e-02  0:05:33 1987
    14  6.1934e-02  2.9509e-02  1.7013e-02  7.5122e-01  6.1947e-02  0:04:27 1986
    15  6.3121e-02  3.0583e-02  1.6506e-02  7.7854e-01  6.3119e-02  0:03:33 1985
    16  6.4681e-02  3.1844e-02  1.6235e-02  8.1107e-01  6.4664e-02  0:02:50 1984
    17  6.6385e-02  3.3227e-02  1.6174e-02  8.4949e-01  6.6351e-02  0:02:16 1983
    18  6.8230e-02  3.4623e-02  1.6179e-02  8.9492e-01  6.8178e-02  0:01:49 1982
    19  7.0002e-02  3.5928e-02  1.6366e-02  9.4576e-01  6.9928e-02  0:08:03 1981
    20  7.1551e-02  3.7039e-02  1.6654e-02  1.0062e+00  7.1454e-02  0:06:26 1980
    21  7.2900e-02  3.7871e-02  1.6959e-02  1.0718e+00  7.2776e-02  0:05:09 1979
    22  7.3871e-02  3.8572e-02  1.7319e-02  1.1336e+00  7.3718e-02  0:04:07 1978

  iter  continuity  x-velocity  y-velocity  z-velocity      energy     time/iter
    23  7.4443e-02  3.8998e-02  1.7685e-02  1.1983e+00  7.4258e-02  0:03:18 1977
    24  7.4635e-02  3.9119e-02  1.7866e-02  1.2558e+00  7.4416e-02  0:02:38 1976
    25  7.4304e-02  3.9110e-02  1.8150e-02  1.3008e+00  7.4049e-02  0:02:06 1975
    26  7.3486e-02  3.8917e-02  1.8345e-02  1.3274e+00  7.3194e-02  0:01:41 1974
    27  7.2264e-02  3.8414e-02  1.8392e-02  1.3363e+00  7.1934e-02  0:01:21 1973
    28  7.0712e-02  3.7765e-02  1.8524e-02  1.3257e+00  7.0345e-02  0:01:05 1972
    29  6.8695e-02  3.7107e-02  1.8618e-02  1.2966e+00  6.8291e-02  0:00:52 1971
    30  6.6375e-02  3.6315e-02  1.8858e-02  1.2514e+00  6.5935e-02  0:00:41 1970
    31  6.3876e-02  3.5413e-02  1.9273e-02  1.1934e+00  6.3402e-02  0:00:33 1969
    32  6.1202e-02  3.4486e-02  2.0015e-02  1.1325e+00  6.0697e-02  0:00:26 1968
    33  5.8329e-02  3.3611e-02  2.1008e-02  1.0791e+00  5.7794e-02  0:00:21 1967

  iter  continuity  x-velocity  y-velocity  z-velocity      energy     time/iter
    34  5.5347e-02  3.2768e-02  2.2381e-02  1.0436e+00  5.4786e-02  0:00:17 1966
    35  5.2293e-02  3.1930e-02  2.4036e-02  1.0307e+00  5.1707e-02  0:00:13 1965
    36  4.9245e-02  3.1168e-02  2.5942e-02  1.0424e+00  4.8638e-02  0:00:11 1964
    37  4.6194e-02  3.0666e-02  2.8074e-02  1.0757e+00  4.5568e-02  0:06:41 1963
    38  4.3174e-02  3.0367e-02  3.0375e-02  1.1242e+00  4.2533e-02  0:05:21 1962
    39  4.0219e-02  3.0263e-02  3.2780e-02  1.1786e+00  3.9565e-02  0:04:17 1961
    40  3.7333e-02  3.0307e-02  3.5235e-02  1.2278e+00  3.6668e-02  0:03:25 1960
    41  3.4529e-02  3.0537e-02  3.7696e-02  1.2681e+00  3.3855e-02  0:02:44 1959
    42  3.1839e-02  3.1018e-02  4.0137e-02  1.2961e+00  3.1159e-02  0:02:11 1958
    43  2.9245e-02  3.1805e-02  4.2517e-02  1.3102e+00  2.8560e-02  0:01:45 1957
    44  2.6757e-02  3.2858e-02  4.4864e-02  1.3076e+00  2.6071e-02  0:01:24 1956

  iter  continuity  x-velocity  y-velocity  z-velocity      energy     time/iter
    45  2.4400e-02  3.4083e-02  4.7149e-02  1.2889e+00  2.3714e-02  0:01:07 1955
    46  2.2192e-02  3.5512e-02  4.9354e-02  1.2539e+00  2.1510e-02  0:00:54 1954
    47  2.0154e-02  3.6987e-02  5.1474e-02  1.2030e+00  1.9481e-02  0:00:43 1953
    48  1.8309e-02  3.8749e-02  5.3490e-02  1.1433e+00  1.7650e-02  0:00:34 1952
    49  1.6658e-02  4.0683e-02  5.5399e-02  1.0793e+00  1.6022e-02  0:00:27 1951
    50  1.5220e-02  4.2745e-02  5.7206e-02  1.0180e+00  1.4615e-02  0:00:22 1950
    51  1.4025e-02  4.4912e-02  5.8887e-02  9.6481e-01  1.3463e-02  0:00:18 1949
    52  1.3101e-02  4.7160e-02  6.0415e-02  9.2589e-01  1.2596e-02  0:00:14 1948
    53  1.2477e-02  4.9463e-02  6.1760e-02  8.9570e-01  1.2040e-02  0:00:11 1947
    54  1.2167e-02  5.1796e-02  6.2904e-02  8.7571e-01  1.1808e-02  0:00:09 1946
    55  1.2159e-02  5.4144e-02  6.3834e-02  8.6803e-01  1.1879e-02  0:00:07 1945

  iter  continuity  x-velocity  y-velocity  z-velocity      energy     time/iter
    56  1.2428e-02  5.6495e-02  6.4534e-02  8.7050e-01  1.2223e-02  0:00:06 1944
    57  1.2929e-02  5.8844e-02  6.4993e-02  8.8153e-01  1.2791e-02  0:06:33 1943
    58  1.3615e-02  6.1176e-02  6.5205e-02  8.9644e-01  1.3531e-02  0:05:14 1942
    59  1.4437e-02  6.3462e-02  6.5194e-02  9.1414e-01  1.4396e-02  0:04:11 1941
    60  1.5363e-02  6.5665e-02  6.4953e-02  9.3100e-01  1.5354e-02  0:03:21 1940
    61  1.6362e-02  6.7776e-02  6.4459e-02  9.4762e-01  1.6374e-02  0:02:41 1939
    62  1.7408e-02  6.9724e-02  6.3727e-02  9.5806e-01  1.7434e-02  0:02:09 1938
    63  1.8478e-02  7.1521e-02  6.2737e-02  9.6591e-01  1.8512e-02  0:01:43 1937
    64  1.9565e-02  7.3092e-02  6.1496e-02  9.7370e-01  1.9601e-02  0:01:22 1936
    65  2.0660e-02  7.4477e-02  6.0001e-02  9.8378e-01  2.0693e-02  0:01:06 1935
    66  2.1757e-02  7.5669e-02  5.8270e-02  9.9267e-01  2.1784e-02  0:00:53 1934

  iter  continuity  x-velocity  y-velocity  z-velocity      energy     time/iter
    67  2.2854e-02  7.6701e-02  5.6318e-02  9.8511e-01  2.2873e-02  0:00:42 1933
    68  2.3909e-02  7.7385e-02  5.4196e-02  9.7023e-01  2.3918e-02  0:00:34 1932
    69  2.4918e-02  7.7656e-02  5.1947e-02  9.5567e-01  2.4916e-02  0:00:27 1931
    70  2.5886e-02  7.7493e-02  4.9624e-02  9.3777e-01  2.5872e-02  0:00:21 1930
    71  2.6816e-02  7.6881e-02  4.7291e-02  9.2042e-01  2.6788e-02  0:00:17 1929
    72  2.7674e-02  7.5900e-02  4.4906e-02  9.0599e-01  2.7632e-02  0:00:14 1928
    73  2.8362e-02  7.4512e-02  4.2702e-02  9.0315e-01  2.8305e-02  0:00:11 1927
    74  2.9100e-02  7.2753e-02  4.0716e-02  9.1345e-01  2.9027e-02  0:00:09 1926
    75  2.9066e-02  7.0798e-02  3.8973e-02  9.3858e-01  2.8977e-02  0:00:07 1925
    76  2.8575e-02  6.8548e-02  3.7503e-02  9.5944e-01  2.8468e-02  0:06:30 1924
    77  2.7875e-02  6.6152e-02  3.6582e-02  1.0001e+00  2.7747e-02  0:05:12 1923

  iter  continuity  x-velocity  y-velocity  z-velocity      energy     time/iter
    78  2.7113e-02  6.3364e-02  3.6237e-02  1.0405e+00  2.6963e-02  0:04:10 1922
    79  2.6251e-02  6.0255e-02  3.6253e-02  1.0872e+00  2.6076e-02  0:03:20 1921
    80  2.5229e-02  5.7614e-02  3.6361e-02  1.1420e+00  2.5026e-02  0:02:40 1920
    81  2.4154e-02  5.4802e-02  3.7094e-02  1.2028e+00  2.3924e-02  0:02:08 1919
    82  2.3055e-02  5.2176e-02  3.8143e-02  1.2338e+00  2.2796e-02  0:01:42 1918
    83  2.2128e-02  4.9898e-02  3.9391e-02  1.2695e+00  2.1844e-02  0:01:22 1917
    84  2.1369e-02  4.8005e-02  4.0749e-02  1.3237e+00  2.1066e-02  0:01:05 1916
    85  2.0652e-02  4.7028e-02  4.2002e-02  1.3854e+00  2.0338e-02  0:00:52 1915
    86  2.0041e-02  4.6807e-02  4.3220e-02  1.4469e+00  1.9723e-02  0:00:42 1914
    87  1.9539e-02  4.6497e-02  4.4450e-02  1.4802e+00  1.9228e-02  0:00:33 1913
    88  1.9152e-02  4.6328e-02  4.5617e-02  1.5198e+00  1.8854e-02  0:00:27 1912

  iter  continuity  x-velocity  y-velocity  z-velocity      energy     time/iter
    89  1.8977e-02  4.6596e-02  4.6519e-02  1.5386e+00  1.8701e-02  0:00:21 1911
    90  1.8948e-02  4.7305e-02  4.7143e-02  1.5496e+00  1.8700e-02  0:00:17 1910
    91  1.9045e-02  4.8145e-02  4.7519e-02  1.5675e+00  1.8828e-02  0:00:14 1909
    92  1.9281e-02  4.9150e-02  4.7615e-02  1.5735e+00  1.9096e-02  0:00:11 1908
    93  1.9505e-02  5.0385e-02  4.7310e-02  1.5767e+00  1.9350e-02  0:00:09 1907
    94  1.9740e-02  5.1088e-02  4.6824e-02  1.5857e+00  1.9613e-02  0:06:28 1906
    95  1.9912e-02  5.1732e-02  4.6014e-02  1.5862e+00  1.9807e-02  0:05:10 1905
    96  2.0124e-02  5.2218e-02  4.4851e-02  1.5674e+00  2.0039e-02  0:04:08 1904
    97  2.0270e-02  5.2492e-02  4.3419e-02  1.5605e+00  2.0201e-02  0:03:18 1903
    98  2.0345e-02  5.2601e-02  4.1760e-02  1.5772e+00  2.0290e-02  0:02:39 1902
    99  2.0500e-02  5.2528e-02  3.9918e-02  1.5950e+00  2.0455e-02  0:02:07 1901

  iter  continuity  x-velocity  y-velocity  z-velocity      energy     time/iter
   100  2.0622e-02  5.2146e-02  3.7866e-02  1.6052e+00  2.0585e-02  0:01:41 1900
   101  2.0649e-02  5.1520e-02  3.5637e-02  1.6055e+00  2.0618e-02  0:01:21 1899
   102  2.0676e-02  5.0656e-02  3.3313e-02  1.6274e+00  2.0649e-02  0:01:05 1898
   103  2.0632e-02  4.9520e-02  3.0971e-02  1.6444e+00  2.0607e-02  0:00:52 1897
   104  2.0566e-02  4.8110e-02  2.8593e-02  1.6615e+00  2.0542e-02  0:00:41 1896
   105  2.0364e-02  4.6545e-02  2.6265e-02  1.6713e+00  2.0340e-02  0:00:33 1895
   106  2.0004e-02  4.4873e-02  2.4065e-02  1.6579e+00  1.9981e-02  0:00:27 1894
   107  1.9679e-02  4.3091e-02  2.2046e-02  1.6369e+00  1.9657e-02  0:00:21 1893
   108  1.9506e-02  4.1200e-02  2.0245e-02  1.6152e+00  1.9482e-02  0:00:17 1892
   109  1.9315e-02  3.9176e-02  1.8632e-02  3.7788e+00  1.9290e-02  0:00:14 1891
   110  1.9089e-02  3.7179e-02  1.7249e-02  3.9549e+00  1.9063e-02  0:00:11 1890

  iter  continuity  x-velocity  y-velocity  z-velocity      energy     time/iter
   111  1.8442e-02  3.5277e-02  1.6128e-02  3.8930e+00  1.8415e-02  0:00:09 1889
   112  1.7730e-02  3.3446e-02  1.5305e-02  3.9890e+00  1.7700e-02  0:00:07 1888
   113  1.7206e-02  3.1646e-02  1.4728e-02  4.1749e+00  1.7174e-02  0:06:23 1887
   114  1.6911e-02  2.9967e-02  1.4380e-02  4.4361e+00  1.6875e-02  0:05:06 1886
   115  1.6499e-02  2.8529e-02  1.4252e-02  4.7607e+00  1.6459e-02  0:04:05 1885
   116  1.5862e-02  2.7330e-02  1.4273e-02  5.1092e+00  1.5819e-02  0:03:16 1884
   117  1.4817e-02  2.6359e-02  1.4403e-02  5.4100e+00  1.4772e-02  0:02:37 1883
   118  1.3186e-02  2.5442e-02  1.4594e-02  5.6963e+00  1.3139e-02  0:02:05 1882
   119  1.1742e-02  2.4873e-02  1.4802e-02  6.0082e+00  1.1693e-02  0:01:40 1881
   120  1.0693e-02  2.4431e-02  1.4981e-02  6.5140e+00  1.0642e-02  0:01:20 1880
   121  1.0165e-02  2.4345e-02  1.5105e-02  7.2572e+00  1.0112e-02  0:01:04 1879

  iter  continuity  x-velocity  y-velocity  z-velocity      energy     time/iter
   122  9.9324e-03  2.4514e-02  1.5156e-02  8.1319e+00  9.8799e-03  0:00:51 1878
   123  9.9485e-03  2.4852e-02  1.5142e-02  8.9727e+00  9.8973e-03  0:00:41 1877
   124  1.0006e-02  2.5315e-02  1.5024e-02  1.0006e+01  9.9565e-03  0:00:33 1876
   125  9.9364e-03  2.5744e-02  1.4849e-02  1.0232e+01  9.8894e-03  0:00:26 1875
   126  9.7444e-03  2.6131e-02  1.4621e-02  9.9550e+00  9.6992e-03  0:00:21 1874
   127  9.4755e-03  2.6471e-02  1.4343e-02  9.4483e+00  9.4313e-03  0:00:17 1873
   128  9.2705e-03  2.6738e-02  1.4043e-02  8.8889e+00  9.2263e-03  0:00:13 1872
   129  9.3455e-03  2.6903e-02  1.3746e-02  8.4622e+00  9.3000e-03  0:00:11 1871
   130  9.6951e-03  2.6969e-02  1.3448e-02  8.3045e+00  9.6476e-03  0:00:09 1870
   131  1.0313e-02  2.6962e-02  1.3161e-02  8.4698e+00  1.0263e-02  0:00:07 1869
   132  1.0965e-02  2.6922e-02  1.2917e-02  8.7049e+00  1.0913e-02  0:00:05 1868

  iter  continuity  x-velocity  y-velocity  z-velocity      energy     time/iter
   133  1.1587e-02  2.6865e-02  1.2766e-02  8.9822e+00  1.1533e-02  0:06:18 1867
   134  1.2046e-02  2.6829e-02  1.2754e-02  9.1859e+00  1.1989e-02  0:05:02 1866
   135  1.2359e-02  2.6844e-02  1.2898e-02  9.3828e+00  1.2301e-02  0:04:02 1865
   136  1.2470e-02  2.6964e-02  1.3158e-02  9.3645e+00  1.2411e-02  0:03:13 1864
   137  1.2341e-02  2.7188e-02  1.3475e-02  9.1272e+00  1.2281e-02  0:02:34 1863
   138  1.2028e-02  2.7530e-02  1.3749e-02  8.7420e+00  1.1968e-02  0:02:03 1862
   139  1.1493e-02  2.7885e-02  1.3901e-02  7.9472e+00  1.1434e-02  0:01:39 1861
   140  1.0844e-02  2.8130e-02  1.3909e-02  7.0383e+00  1.0786e-02  0:01:19 1860
   141  1.0193e-02  2.8106e-02  1.3787e-02  6.0619e+00  1.0137e-02  0:01:03 1859
   142  9.8119e-03  2.7798e-02  1.3583e-02  5.5687e+00  9.7589e-03  0:00:50 1858
   143  9.8193e-03  2.7139e-02  1.3392e-02  5.2141e+00  9.7703e-03  0:00:40 1857

  iter  continuity  x-velocity  y-velocity  z-velocity      energy     time/iter
   144  1.0330e-02  2.6335e-02  1.3229e-02  5.0821e+00  1.0286e-02  0:00:32 1856
   145  1.1181e-02  2.5531e-02  1.3148e-02  4.9354e+00  1.1142e-02  0:00:26 1855
   146  1.2050e-02  2.4690e-02  1.3064e-02  4.8761e+00  1.2013e-02  0:00:21 1854
   147  1.2849e-02  2.4077e-02  1.2960e-02  4.8774e+00  1.2815e-02  0:00:16 1853
   148  1.3574e-02  2.3475e-02  1.2942e-02  5.1291e+00  1.3541e-02  0:00:13 1852
   149  1.4147e-02  2.3029e-02  1.2992e-02  5.1555e+00  1.4115e-02  0:00:11 1851
   150  1.4518e-02  2.2735e-02  1.3065e-02  5.1680e+00  1.4487e-02  0:00:08 1850
   151  1.4675e-02  2.2704e-02  1.3141e-02  5.1442e+00  1.4645e-02  0:00:07 1849
   152  1.4683e-02  2.2755e-02  1.3183e-02  5.1563e+00  1.4655e-02  0:06:15 1848
   153  1.4693e-02  2.2788e-02  1.3150e-02  5.0806e+00  1.4667e-02  0:05:00 1847
   154  1.4792e-02  2.3003e-02  1.3002e-02  4.9781e+00  1.4768e-02  0:04:00 1846

  iter  continuity  x-velocity  y-velocity  z-velocity      energy     time/iter
   155  1.5040e-02  2.3214e-02  1.2742e-02  4.9169e+00  1.5016e-02  0:03:12 1845
   156  1.5515e-02  2.3297e-02  1.2390e-02  4.9553e+00  1.5491e-02  0:02:33 1844
   157  1.6167e-02  2.3283e-02  1.1971e-02  5.1490e+00  1.6143e-02  0:02:03 1843
   158  1.7042e-02  2.3005e-02  1.1559e-02  5.5049e+00  1.7015e-02  0:01:38 1842
   159  1.7882e-02  2.2577e-02  1.1112e-02  6.0126e+00  1.7853e-02  0:01:18 1841
   160  1.8617e-02  2.2138e-02  1.0683e-02  6.5449e+00  1.8585e-02  0:01:03 1840
   161  1.9274e-02  2.1589e-02  1.0346e-02  7.0385e+00  1.9239e-02  0:00:50 1839
   162  1.9987e-02  2.1060e-02  1.0121e-02  7.4561e+00  1.9950e-02  0:00:40 1838
   163  2.0682e-02  2.0584e-02  1.0028e-02  7.7618e+00  2.0643e-02  0:00:32 1837
   164  2.1289e-02  2.0206e-02  1.0042e-02  7.8856e+00  2.1248e-02  0:00:26 1836
   165  2.1669e-02  1.9936e-02  1.0144e-02  7.8087e+00  2.1627e-02  0:00:20 1835

  iter  continuity  x-velocity  y-velocity  z-velocity      energy     time/iter
   166  2.1750e-02  1.9808e-02  1.0370e-02  7.5644e+00  2.1705e-02  0:00:16 1834
   167  2.1522e-02  1.9755e-02  1.0755e-02  7.1808e+00  2.1475e-02  0:00:13 1833
   168  2.1056e-02  1.9829e-02  1.1242e-02  6.6682e+00  2.1006e-02  0:00:10 1832
   169  2.0346e-02  2.0055e-02  1.1751e-02  6.1471e+00  2.0292e-02  0:00:08 1831
   170  1.9589e-02  2.0414e-02  1.2195e-02  5.7346e+00  1.9531e-02  0:06:13 1830
   171  1.8707e-02  2.0796e-02  1.2500e-02  5.4729e+00  1.8644e-02  0:04:58 1829
   172  1.7796e-02  2.1081e-02  1.2658e-02  5.3245e+00  1.7728e-02  0:03:58 1828
   173  1.7021e-02  2.1352e-02  1.2725e-02  5.2613e+00  1.6950e-02  0:03:11 1827
   174  1.6418e-02  2.1408e-02  1.2767e-02  5.2487e+00  1.6343e-02  0:02:32 1826
   175  1.6050e-02  2.1193e-02  1.2829e-02  5.3162e+00  1.5974e-02  0:02:02 1825
   176  1.5899e-02  2.0849e-02  1.2952e-02  5.3668e+00  1.5823e-02  0:01:37 1824

  iter  continuity  x-velocity  y-velocity  z-velocity      energy     time/iter
   177  1.5913e-02  2.0407e-02  1.3053e-02  5.4482e+00  1.5838e-02  0:01:18 1823
   178  1.6098e-02  1.9875e-02  1.3240e-02  5.5487e+00  1.6025e-02  0:01:02 1822
   179  1.6279e-02  1.9298e-02  1.3496e-02  5.5628e+00  1.6209e-02  0:00:50 1821
   180  1.6458e-02  1.8898e-02  1.3785e-02  5.5170e+00  1.6391e-02  0:00:40 1820
   181  1.6611e-02  1.8697e-02  1.4106e-02  5.4336e+00  1.6546e-02  0:00:32 1819
   182  1.6652e-02  1.8485e-02  1.4464e-02  5.3907e+00  1.6590e-02  0:00:25 1818
   183  1.6407e-02  1.8193e-02  1.4809e-02  5.3880e+00  1.6347e-02  0:00:20 1817
   184  1.5965e-02  1.8100e-02  1.5087e-02  5.4421e+00  1.5908e-02  0:00:16 1816
   185  1.5325e-02  1.8052e-02  1.5291e-02  5.5388e+00  1.5270e-02  0:00:13 1815
   186  1.4560e-02  1.8180e-02  1.5469e-02  5.5871e+00  1.4508e-02  0:00:10 1814
   187  1.3816e-02  1.8357e-02  1.5544e-02  5.6328e+00  1.3767e-02  0:00:08 1813

  iter  continuity  x-velocity  y-velocity  z-velocity      energy     time/iter
   188  1.3195e-02  1.8563e-02  1.5509e-02  5.7447e+00  1.3150e-02  0:06:09 1812
   189  1.2636e-02  1.8804e-02  1.5404e-02  5.8572e+00  1.2595e-02  0:04:55 1811
   190  1.2205e-02  1.8959e-02  1.5266e-02  6.0059e+00  1.2168e-02  0:03:56 1810
   191  1.1988e-02  1.9127e-02  1.5081e-02  6.2273e+00  1.1955e-02  0:03:09 1809
   192  1.1555e-02  1.9367e-02  1.4851e-02  6.3689e+00  1.1526e-02  0:02:31 1808
   193  1.1140e-02  1.9440e-02  1.4576e-02  6.5304e+00  1.1116e-02  0:02:01 1807
   194  1.0710e-02  1.9404e-02  1.4300e-02  6.6881e+00  1.0689e-02  0:01:36 1806
   195  1.0263e-02  1.9394e-02  1.4000e-02  6.8067e+00  1.0245e-02  0:01:17 1805
   196  9.8846e-03  1.9440e-02  1.3704e-02  6.8934e+00  9.8711e-03  0:01:02 1804
   197  9.6183e-03  1.9552e-02  1.3369e-02  6.9482e+00  9.6087e-03  0:00:49 1803
   198  9.3394e-03  1.9625e-02  1.3038e-02  6.9417e+00  9.3334e-03  0:00:39 1802

  iter  continuity  x-velocity  y-velocity  z-velocity      energy     time/iter
   199  9.0529e-03  1.9690e-02  1.2690e-02  6.8799e+00  9.0501e-03  0:00:32 1801
   200  8.7341e-03  1.9722e-02  1.2344e-02  6.7391e+00  8.7341e-03  0:00:25 1800
   201  8.2702e-03  1.9669e-02  1.2009e-02  6.5034e+00  8.2725e-03  0:00:20 1799
   202  7.8879e-03  1.9556e-02  1.1741e-02  6.2495e+00  7.8918e-03  0:00:16 1798
   203  7.7701e-03  1.9424e-02  1.1457e-02  6.0010e+00  7.7744e-03  0:00:13 1797
   204  7.7760e-03  1.9325e-02  1.1180e-02  5.7847e+00  7.7798e-03  0:00:10 1796
   205  7.9814e-03  1.9247e-02  1.0910e-02  5.6828e+00  7.9839e-03  0:00:08 1795
   206  8.4526e-03  1.9180e-02  1.0655e-02  5.6431e+00  8.4529e-03  0:00:07 1794
   207  9.0499e-03  1.9154e-02  1.0418e-02  5.6819e+00  9.0476e-03  0:06:04 1793
   208  9.6601e-03  1.9146e-02  1.0204e-02  5.7514e+00  9.6553e-03  0:04:51 1792
   209  1.0254e-02  1.9123e-02  9.9930e-03  5.8805e+00  1.0247e-02  0:03:53 1791

  iter  continuity  x-velocity  y-velocity  z-velocity      energy     time/iter
   210  1.0721e-02  1.9040e-02  9.8618e-03  6.0571e+00  1.0711e-02  0:03:06 1790
   211  1.1056e-02  1.8897e-02  9.7584e-03  6.2260e+00  1.1044e-02  0:02:29 1789
   212  1.1335e-02  1.8696e-02  9.6494e-03  6.3773e+00  1.1321e-02  0:01:59 1788
   213  1.1437e-02  1.8457e-02  9.5244e-03  6.4356e+00  1.1421e-02  0:01:35 1787
   214  1.1331e-02  1.8172e-02  9.3863e-03  6.4245e+00  1.1313e-02  0:01:16 1786
   215  1.1048e-02  1.7848e-02  9.2623e-03  6.3762e+00  1.1029e-02  0:01:01 1785
   216  1.0609e-02  1.7544e-02  9.1530e-03  6.3669e+00  1.0588e-02  0:00:49 1784
   217  9.9840e-03  1.7287e-02  9.0365e-03  6.3369e+00  9.9625e-03  0:00:39 1783
   218  9.3348e-03  1.7027e-02  8.9759e-03  6.2869e+00  9.3129e-03  0:00:31 1782
   219  8.5884e-03  1.6782e-02  8.9831e-03  6.2385e+00  8.5663e-03  0:00:25 1781
   220  7.7826e-03  1.6552e-02  9.0313e-03  6.2080e+00  7.7605e-03  0:00:20 1780

  iter  continuity  x-velocity  y-velocity  z-velocity      energy     time/iter
   221  6.9795e-03  1.6345e-02  9.1351e-03  6.1410e+00  6.9575e-03  0:00:16 1779
   222  6.2972e-03  1.6160e-02  9.2375e-03  6.0702e+00  6.2756e-03  0:00:13 1778
   223  5.7877e-03  1.5973e-02  9.3398e-03  5.9960e+00  5.7671e-03  0:00:10 1777
   224  5.4801e-03  1.5813e-02  9.4598e-03  6.0585e+00  5.4612e-03  0:00:08 1776
   225  5.3794e-03  1.5722e-02  9.5754e-03  6.2685e+00  5.3631e-03  0:06:01 1775
   226  5.4234e-03  1.5711e-02  9.7036e-03  6.6264e+00  5.4103e-03  0:04:49 1774
   227  5.5285e-03  1.5752e-02  9.8455e-03  7.1617e+00  5.5186e-03  0:03:51 1773
   228  5.6021e-03  1.5856e-02  1.0009e-02  7.8249e+00  5.5954e-03  0:03:05 1772
   229  5.5748e-03  1.5971e-02  1.0197e-02  8.4242e+00  5.5710e-03  0:02:28 1771
   230  5.4676e-03  1.6147e-02  1.0375e-02  8.8375e+00  5.4665e-03  0:01:58 1770
   231  5.4007e-03  1.6382e-02  1.0512e-02  9.1895e+00  5.4022e-03  0:01:34 1769

  iter  continuity  x-velocity  y-velocity  z-velocity      energy     time/iter
   232  5.4879e-03  1.6662e-02  1.0602e-02  9.4226e+00  5.4910e-03  0:01:16 1768
   233  5.8802e-03  1.7017e-02  1.0648e-02  9.7540e+00  5.8837e-03  0:01:00 1767
   234  6.5787e-03  1.7435e-02  1.0655e-02  1.0323e+01  6.5811e-03  0:00:48 1766
   235  7.5807e-03  1.7879e-02  1.0677e-02  1.1174e+01  7.5808e-03  0:00:39 1765
   236  8.6245e-03  1.8343e-02  1.0733e-02  1.2132e+01  8.6219e-03  0:00:31 1764
   237  9.5364e-03  1.8809e-02  1.0845e-02  1.3071e+01  9.5310e-03  0:00:25 1763
   238  1.0290e-02  1.9206e-02  1.1010e-02  1.3895e+01  1.0282e-02  0:00:20 1762
   239  1.0769e-02  1.9537e-02  1.1245e-02  1.4259e+01  1.0757e-02  0:06:08 1761
   240  1.0984e-02  1.9846e-02  1.1541e-02  1.4462e+01  1.0969e-02  0:04:54 1760
   241  1.0964e-02  2.0287e-02  1.1873e-02  1.4458e+01  1.0944e-02  0:03:55 1759
   242  1.0822e-02  2.0951e-02  1.2247e-02  1.4292e+01  1.0798e-02  0:03:08 1758

  iter  continuity  x-velocity  y-velocity  z-velocity      energy     time/iter
   243  1.0580e-02  2.1747e-02  1.2611e-02  1.3945e+01  1.0551e-02  0:02:30 1757
   244  1.0305e-02  2.2527e-02  1.2918e-02  1.3393e+01  1.0270e-02  0:02:00 1756
   245  1.0061e-02  2.3111e-02  1.3079e-02  1.2804e+01  1.0020e-02  0:01:36 1755
   246  9.8800e-03  2.3377e-02  1.3083e-02  1.2085e+01  9.8326e-03  0:01:17 1754
   247  9.8052e-03  2.3273e-02  1.2981e-02  1.1444e+01  9.7513e-03  0:01:01 1753
   248  9.9081e-03  2.2871e-02  1.2842e-02  1.1099e+01  9.8485e-03  0:00:49 1752
   249  1.0091e-02  2.2238e-02  1.2694e-02  1.0512e+01  1.0026e-02  0:00:39 1751
   250  1.0289e-02  2.1383e-02  1.2448e-02  9.9185e+00  1.0220e-02  0:00:31 1750
   251  1.0390e-02  2.0463e-02  1.2206e-02  9.3337e+00  1.0316e-02  0:00:25 1749
   252  1.0349e-02  1.9416e-02  1.2012e-02  8.8565e+00  1.0271e-02  0:00:20 1748
   253  1.0174e-02  1.8272e-02  1.1882e-02  8.4383e+00  1.0090e-02  0:00:16 1747

  iter  continuity  x-velocity  y-velocity  z-velocity      energy     time/iter
   254  9.9058e-03  1.7217e-02  1.1817e-02  8.1373e+00  9.8173e-03  0:00:13 1746
   255  9.5558e-03  1.6127e-02  1.1860e-02  7.8491e+00  9.4620e-03  0:05:59 1745
   256  9.2023e-03  1.5203e-02  1.1978e-02  7.5937e+00  9.1037e-03  0:04:47 1744
   257  8.8538e-03  1.4401e-02  1.2150e-02  7.4788e+00  8.7512e-03  0:03:50 1743
   258  8.5433e-03  1.3792e-02  1.2357e-02  7.5614e+00  8.4383e-03  0:03:04 1742
   259  8.3056e-03  1.3360e-02  1.2578e-02  7.8399e+00  8.1999e-03  0:02:27 1741
   260  8.1100e-03  1.3092e-02  1.2806e-02  8.2066e+00  8.0052e-03  0:01:57 1740
   261  7.9379e-03  1.2936e-02  1.3060e-02  8.5314e+00  7.8353e-03  0:01:34 1739
   262  7.8058e-03  1.2953e-02  1.3310e-02  8.7496e+00  7.7067e-03  0:01:15 1738
   263  7.6551e-03  1.3144e-02  1.3528e-02  8.7845e+00  7.5601e-03  0:01:00 1737
   264  7.4990e-03  1.3446e-02  1.3713e-02  8.6674e+00  7.4086e-03  0:00:48 1736

  iter  continuity  x-velocity  y-velocity  z-velocity      energy     time/iter
   265  7.3369e-03  1.3854e-02  1.3845e-02  8.4596e+00  7.2516e-03  0:00:38 1735
   266  7.1412e-03  1.4341e-02  1.3941e-02  8.2585e+00  7.0612e-03  0:00:31 1734
   267  6.9430e-03  1.4827e-02  1.4011e-02  8.1234e+00  6.8686e-03  0:00:25 1733
   268  6.7898e-03  1.5297e-02  1.4048e-02  8.0506e+00  6.7215e-03  0:00:20 1732
   269  6.6449e-03  1.5771e-02  1.4040e-02  7.9874e+00  6.5827e-03  0:00:16 1731
   270  6.5243e-03  1.6237e-02  1.3992e-02  8.0404e+00  6.4683e-03  0:00:13 1730
   271  6.4026e-03  1.6670e-02  1.3900e-02  8.1083e+00  6.3527e-03  0:05:56 1729
   272  6.2564e-03  1.7052e-02  1.3762e-02  8.1289e+00  6.2121e-03  0:04:44 1728
   273  6.1336e-03  1.7377e-02  1.3584e-02  8.1442e+00  6.0946e-03  0:03:47 1727
   274  6.0051e-03  1.7649e-02  1.3372e-02  8.1932e+00  5.9707e-03  0:03:02 1726
   275  5.9001e-03  1.7857e-02  1.3116e-02  8.2325e+00  5.8700e-03  0:02:25 1725

  iter  continuity  x-velocity  y-velocity  z-velocity      energy     time/iter
   276  5.8307e-03  1.8000e-02  1.2806e-02  8.2123e+00  5.8044e-03  0:01:56 1724
   277  5.7958e-03  1.8091e-02  1.2453e-02  8.1970e+00  5.7728e-03  0:01:33 1723
   278  5.8229e-03  1.8098e-02  1.2067e-02  8.1707e+00  5.8027e-03  0:01:14 1722
   279  5.9400e-03  1.8041e-02  1.1661e-02  8.1459e+00  5.9220e-03  0:00:59 1721
   280  6.0846e-03  1.7915e-02  1.1244e-02  8.1160e+00  6.0685e-03  0:00:48 1720
   281  6.2545e-03  1.7728e-02  1.0801e-02  8.0743e+00  6.2397e-03  0:00:38 1719
   282  6.4644e-03  1.7491e-02  1.0331e-02  8.0225e+00  6.4506e-03  0:00:30 1718
   283  6.7631e-03  1.7213e-02  9.8596e-03  7.9651e+00  6.7499e-03  0:00:24 1717
   284  7.3974e-03  1.6928e-02  9.3893e-03  7.9776e+00  7.3847e-03  0:00:19 1716
   285  7.4438e-03  1.6616e-02  8.9437e-03  7.9460e+00  7.4312e-03  0:00:16 1715
   286  7.4654e-03  1.6261e-02  8.5170e-03  7.8553e+00  7.4528e-03  0:00:12 1714

  iter  continuity  x-velocity  y-velocity  z-velocity      energy     time/iter
   287  7.3747e-03  1.5874e-02  8.0865e-03  7.7798e+00  7.3620e-03  0:05:53 1713
   288  7.1041e-03  1.5460e-02  7.6571e-03  7.7686e+00  7.0911e-03  0:04:42 1712
   289  6.6903e-03  1.5010e-02  7.2411e-03  7.8031e+00  6.6768e-03  0:03:45 1711
   290  6.1845e-03  1.4507e-02  6.8495e-03  7.7567e+00  6.1704e-03  0:03:00 1710
   291  5.7499e-03  1.3965e-02  6.4671e-03  7.7070e+00  5.7349e-03  0:02:24 1709
   292  5.4454e-03  1.3373e-02  6.0605e-03  7.6823e+00  5.4297e-03  0:01:55 1708
   293  5.2864e-03  1.2741e-02  5.6537e-03  7.7842e+00  5.2704e-03  0:01:32 1707
   294  5.3906e-03  1.2089e-02  5.2501e-03  7.9473e+00  5.3747e-03  0:01:14 1706
   295  5.8170e-03  1.1460e-02  4.8874e-03  8.1758e+00  5.8017e-03  0:00:59 1705
   296  6.4273e-03  1.0890e-02  4.5554e-03  8.4003e+00  6.4125e-03  0:00:47 1704
   297  7.1275e-03  1.0393e-02  4.2670e-03  8.5336e+00  7.1130e-03  0:00:38 1703

  iter  continuity  x-velocity  y-velocity  z-velocity      energy     time/iter
   298  7.7381e-03  9.9814e-03  4.0519e-03  8.5803e+00  7.7235e-03  0:00:30 1702
   299  8.1553e-03  9.6491e-03  3.9085e-03  8.5320e+00  8.1401e-03  0:00:24 1701
   300  8.3389e-03  9.3112e-03  3.8439e-03  8.4365e+00  8.3228e-03  0:00:19 1700
   301  8.2732e-03  9.0445e-03  3.8086e-03  8.2782e+00  8.2558e-03  0:00:15 1699
   302  8.0015e-03  8.8600e-03  3.7753e-03  8.1310e+00  7.9824e-03  0:00:12 1698
   303  7.4973e-03  8.7240e-03  3.7453e-03  7.9197e+00  7.4756e-03  0:05:49 1697
   304  6.8679e-03  8.6147e-03  3.7185e-03  7.7027e+00  6.8427e-03  0:04:39 1696
   305  6.2678e-03  8.5372e-03  3.6969e-03  7.4549e+00  6.2380e-03  0:03:43 1695
   306  6.0222e-03  8.4931e-03  3.6894e-03  7.2738e+00  5.9882e-03  0:02:58 1694
   307  6.2529e-03  8.4758e-03  3.7078e-03  7.2176e+00  6.2164e-03  0:02:23 1693
   308  6.7771e-03  8.4766e-03  3.7505e-03  7.1852e+00  6.7394e-03  0:01:54 1692

  iter  continuity  x-velocity  y-velocity  z-velocity      energy     time/iter
   309  7.3723e-03  8.4965e-03  3.8176e-03  7.1771e+00  7.3336e-03  0:01:31 1691
   310  7.8242e-03  8.5250e-03  3.9532e-03  7.2837e+00  7.7840e-03  0:01:13 1690
   311  8.1300e-03  8.5333e-03  4.1252e-03  7.5274e+00  8.0879e-03  0:00:58 1689
   312  8.3163e-03  8.5276e-03  4.3142e-03  7.8685e+00  8.2723e-03  0:00:47 1688
   313  8.3316e-03  8.5137e-03  4.5632e-03  8.2175e+00  8.2852e-03  0:00:37 1687
   314  8.1033e-03  8.4586e-03  4.8565e-03  8.5383e+00  8.0537e-03  0:00:30 1686
   315  7.7604e-03  8.3797e-03  5.1734e-03  8.7565e+00  7.7074e-03  0:00:24 1685
   316  7.2859e-03  8.2692e-03  5.5027e-03  8.8040e+00  7.2288e-03  0:00:19 1684
   317  6.7152e-03  8.1030e-03  5.8434e-03  8.6380e+00  6.6532e-03  0:00:15 1683
   318  6.0584e-03  7.8947e-03  6.1943e-03  8.3659e+00  5.9905e-03  0:00:12 1682
   319  5.4090e-03  7.6546e-03  6.5662e-03  8.0465e+00  5.3346e-03  0:05:46 1681

  iter  continuity  x-velocity  y-velocity  z-velocity      energy     time/iter
   320  4.8437e-03  7.3929e-03  6.9489e-03  7.7181e+00  4.7632e-03  0:04:37 1680
   321  4.4757e-03  7.1454e-03  7.3319e-03  7.4380e+00  4.3919e-03  0:03:41 1679
   322  4.3650e-03  6.9460e-03  7.7244e-03  7.2076e+00  4.2832e-03  0:02:57 1678
   323  4.5609e-03  6.8295e-03  8.1208e-03  7.0055e+00  4.4870e-03  0:02:21 1677
   324  4.9687e-03  6.7987e-03  8.5123e-03  6.8575e+00  4.9054e-03  0:01:53 1676
   325  5.4146e-03  6.8582e-03  8.8901e-03  6.7416e+00  5.3608e-03  0:01:30 1675
   326  5.6900e-03  6.9880e-03  9.2460e-03  6.6759e+00  5.6434e-03  0:01:12 1674
   327  5.7343e-03  7.1701e-03  9.5679e-03  6.5982e+00  5.6929e-03  0:00:58 1673
   328  5.5259e-03  7.3788e-03  9.8477e-03  6.4892e+00  5.4883e-03  0:00:46 1672
   329  5.1018e-03  7.5974e-03  1.0076e-02  6.3451e+00  5.0671e-03  0:00:37 1671
   330  4.5335e-03  7.8207e-03  1.0246e-02  6.1923e+00  4.5008e-03  0:00:30 1670

  iter  continuity  x-velocity  y-velocity  z-velocity      energy     time/iter
   331  3.8256e-03  8.0414e-03  1.0356e-02  6.0296e+00  3.7939e-03  0:00:24 1669
   332  3.1804e-03  8.2669e-03  1.0407e-02  5.8755e+00  3.1492e-03  0:00:19 1668
   333  2.9852e-03  8.4997e-03  1.0399e-02  5.7671e+00  2.9573e-03  0:00:15 1667
   334  3.4228e-03  8.7580e-03  1.0340e-02  5.7026e+00  3.4012e-03  0:00:12 1666
   335  4.2425e-03  9.0104e-03  1.0221e-02  5.7011e+00  4.2257e-03  0:05:43 1665
   336  5.0889e-03  9.2450e-03  1.0050e-02  5.6986e+00  5.0746e-03  0:04:34 1664
   337  5.7383e-03  9.4563e-03  9.8287e-03  5.6958e+00  5.7250e-03  0:03:39 1663
   338  6.1936e-03  9.6439e-03  9.5596e-03  5.7400e+00  6.1807e-03  0:02:55 1662
   339  6.4484e-03  9.8115e-03  9.2485e-03  5.8223e+00  6.4352e-03  0:02:20 1661
   340  6.5058e-03  9.9452e-03  8.8998e-03  5.9708e+00  6.4921e-03  0:01:52 1660
   341  6.4147e-03  1.0049e-02  8.5248e-03  6.1297e+00  6.4004e-03  0:01:29 1659

  iter  continuity  x-velocity  y-velocity  z-velocity      energy     time/iter
   342  6.0709e-03  1.0119e-02  8.1328e-03  6.2900e+00  6.0555e-03  0:01:12 1658
   343  5.5959e-03  1.0152e-02  7.7312e-03  6.4648e+00  5.5793e-03  0:00:57 1657
   344  5.0049e-03  1.0157e-02  7.3243e-03  6.7092e+00  4.9865e-03  0:00:46 1656
   345  4.3291e-03  1.0123e-02  6.9176e-03  6.9485e+00  4.3083e-03  0:00:37 1655
   346  3.6343e-03  1.0036e-02  6.5236e-03  7.1631e+00  3.6101e-03  0:00:29 1654
   347  3.0898e-03  9.8894e-03  6.1443e-03  7.3446e+00  3.0618e-03  0:00:23 1653
   348  2.8766e-03  9.6996e-03  5.7852e-03  7.5823e+00  2.8470e-03  0:00:19 1652
   349  3.0711e-03  9.4774e-03  5.4458e-03  8.0214e+00  3.0436e-03  0:05:45 1651
   350  3.5677e-03  9.2456e-03  5.1386e-03  8.5313e+00  3.5439e-03  0:04:36 1650
   351  4.1770e-03  9.0129e-03  4.8647e-03  9.0336e+00  4.1564e-03  0:03:41 1649
   352  4.7691e-03  8.8014e-03  4.6258e-03  9.4349e+00  4.7506e-03  0:02:56 1648

  iter  continuity  x-velocity  y-velocity  z-velocity      energy     time/iter
   353  5.2524e-03  8.6095e-03  4.4287e-03  9.8724e+00  5.2352e-03  0:02:21 1647
   354  5.6954e-03  8.4085e-03  4.2700e-03  1.0372e+01  5.6790e-03  0:01:53 1646
   355  5.9190e-03  8.2273e-03  4.1445e-03  1.0806e+01  5.9028e-03  0:01:30 1645
   356  5.8219e-03  8.0175e-03  4.0456e-03  1.1130e+01  5.8051e-03  0:01:12 1644
   357  5.4419e-03  7.7789e-03  3.9674e-03  1.1211e+01  5.4239e-03  0:00:58 1643
   358  4.8074e-03  7.5628e-03  3.8626e-03  1.1116e+01  4.7872e-03  0:00:46 1642
   359  4.1003e-03  7.3104e-03  3.7624e-03  1.0979e+01  4.0766e-03  0:00:37 1641
   360  3.5020e-03  6.9825e-03  3.6784e-03  1.0993e+01  3.4737e-03  0:00:29 1640
   361  3.2380e-03  6.6197e-03  3.6124e-03  1.1282e+01  3.2062e-03  0:00:24 1639
   362  3.3819e-03  6.2921e-03  3.5936e-03  1.1838e+01  3.3496e-03  0:00:19 1638
   363  3.7728e-03  6.0297e-03  3.6242e-03  1.2624e+01  3.7418e-03  0:00:15 1637

  iter  continuity  x-velocity  y-velocity  z-velocity      energy     time/iter
   364  4.3060e-03  5.7997e-03  3.6681e-03  1.3527e+01  4.2769e-03  0:00:12 1636
   365  4.9006e-03  5.6415e-03  3.7795e-03  1.4433e+01  4.8732e-03  0:05:37 1635
   366  5.4259e-03  5.5265e-03  3.9192e-03  1.5134e+01  5.3994e-03  0:04:29 1634
   367  5.9010e-03  5.4575e-03  4.0658e-03  1.5514e+01  5.8750e-03  0:03:35 1633
   368  6.5638e-03  5.4327e-03  4.2155e-03  1.5654e+01  6.5388e-03  0:02:52 1632
   369  6.4301e-03  5.4689e-03  4.3713e-03  1.5614e+01  6.4037e-03  0:02:18 1631
   370  6.2031e-03  5.5403e-03  4.5306e-03  1.5404e+01  6.1751e-03  0:01:50 1630
   371  5.8033e-03  5.6151e-03  4.6882e-03  1.5050e+01  5.7727e-03  0:01:28 1629
   372  5.2033e-03  5.6546e-03  4.8372e-03  1.4664e+01  5.1686e-03  0:01:10 1628
   373  4.4695e-03  5.6263e-03  4.9754e-03  1.4317e+01  4.4287e-03  0:00:56 1627
   374  3.7133e-03  5.5545e-03  5.0984e-03  1.3909e+01  3.6637e-03  0:00:45 1626

  iter  continuity  x-velocity  y-velocity  z-velocity      energy     time/iter
   375  3.0325e-03  5.4355e-03  5.2048e-03  1.3611e+01  2.9712e-03  0:00:36 1625
   376  2.5496e-03  5.2808e-03  5.2981e-03  1.3438e+01  2.4761e-03  0:00:29 1624
   377  2.3755e-03  5.1210e-03  5.3815e-03  1.3436e+01  2.2964e-03  0:00:23 1623
   378  2.5192e-03  4.9718e-03  5.4640e-03  1.3562e+01  2.4449e-03  0:00:18 1622
   379  2.8745e-03  4.8645e-03  5.5461e-03  1.3746e+01  2.8102e-03  0:00:15 1621
   380  3.3098e-03  4.8130e-03  5.6284e-03  1.3941e+01  3.2549e-03  0:00:12 1620
   381  3.7641e-03  4.8246e-03  5.7125e-03  1.4157e+01  3.7169e-03  0:05:33 1619
   382  4.1990e-03  4.8998e-03  5.7981e-03  1.4364e+01  4.1579e-03  0:04:26 1618
   383  4.5793e-03  5.0121e-03  5.8828e-03  1.4515e+01  4.5430e-03  0:03:33 1617
   384  4.8360e-03  5.1487e-03  5.9632e-03  1.4697e+01  4.8032e-03  0:02:50 1616
   385  4.8182e-03  5.2947e-03  6.0381e-03  1.4672e+01  4.7873e-03  0:02:16 1615

  iter  continuity  x-velocity  y-velocity  z-velocity      energy     time/iter
   386  4.6335e-03  5.4473e-03  6.1042e-03  1.4602e+01  4.6038e-03  0:01:49 1614
   387  4.3397e-03  5.5987e-03  6.1576e-03  1.4507e+01  4.3109e-03  0:01:27 1613
   388  3.9984e-03  5.7430e-03  6.1967e-03  1.4444e+01  3.9703e-03  0:01:10 1612
   389  3.6615e-03  5.8832e-03  6.2210e-03  1.4431e+01  3.6343e-03  0:00:56 1611
   390  3.3701e-03  6.0169e-03  6.2305e-03  1.4405e+01  3.3442e-03  0:00:44 1610
   391  3.1498e-03  6.1369e-03  6.2250e-03  1.4394e+01  3.1257e-03  0:00:36 1609
   392  3.0021e-03  6.2553e-03  6.2059e-03  1.4403e+01  2.9805e-03  0:00:28 1608
   393  2.9264e-03  6.3750e-03  6.1730e-03  1.4415e+01  2.9076e-03  0:00:23 1607
   394  2.8905e-03  6.4864e-03  6.1239e-03  1.4436e+01  2.8746e-03  0:00:18 1606
   395  2.8564e-03  6.5940e-03  6.0604e-03  1.4465e+01  2.8432e-03  0:00:15 1605
   396  2.8084e-03  6.7041e-03  5.9825e-03  1.4506e+01  2.7977e-03  0:05:32 1604

  iter  continuity  x-velocity  y-velocity  z-velocity      energy     time/iter
   397  2.7422e-03  6.8257e-03  5.9105e-03  1.4560e+01  2.7335e-03  0:04:26 1603
   398  2.6416e-03  6.9156e-03  5.8006e-03  1.4571e+01  2.6349e-03  0:03:32 1602
   399  2.5188e-03  7.0037e-03  5.6681e-03  1.4561e+01  2.5138e-03  0:02:50 1601
   400  2.3869e-03  7.0934e-03  5.5314e-03  1.4571e+01  2.3835e-03  0:02:16 1600
   401  2.2527e-03  7.1753e-03  5.3860e-03  1.4597e+01  2.2508e-03  0:01:49 1599
   402  2.1308e-03  7.2456e-03  5.2287e-03  1.4707e+01  2.1302e-03  0:01:27 1598
   403  2.0368e-03  7.3014e-03  5.0610e-03  1.4933e+01  2.0372e-03  0:01:09 1597
   404  1.9801e-03  7.3404e-03  4.8857e-03  1.5234e+01  1.9813e-03  0:00:55 1596
   405  1.9596e-03  7.3650e-03  4.7050e-03  1.5629e+01  1.9613e-03  0:00:44 1595
   406  1.9450e-03  7.3822e-03  4.5191e-03  1.6087e+01  1.9469e-03  0:00:35 1594
   407  1.9189e-03  7.3889e-03  4.3312e-03  1.6502e+01  1.9206e-03  0:00:28 1593

  iter  continuity  x-velocity  y-velocity  z-velocity      energy     time/iter
   408  1.8670e-03  7.3669e-03  4.1479e-03  1.6934e+01  1.8684e-03  0:00:23 1592
   409  1.7959e-03  7.3173e-03  3.9686e-03  1.7382e+01  1.7967e-03  0:00:18 1591
   410  1.7167e-03  7.2479e-03  3.7944e-03  1.7813e+01  1.7166e-03  0:00:14 1590
   411  1.6443e-03  7.1657e-03  3.6260e-03  1.8162e+01  1.6430e-03  0:00:12 1589
   412  1.5878e-03  7.0674e-03  3.4680e-03  1.8465e+01  1.5851e-03  0:05:27 1588
   413  1.5478e-03  6.9536e-03  3.3258e-03  1.8767e+01  1.5437e-03  0:04:21 1587
   414  1.5334e-03  6.8189e-03  3.2007e-03  1.9058e+01  1.5278e-03  0:03:29 1586
   415  1.5375e-03  6.6651e-03  3.0852e-03  1.9263e+01  1.5304e-03  0:02:47 1585
   416  1.5623e-03  6.5008e-03  2.9921e-03  1.9418e+01  1.5539e-03  0:02:14 1584
   417  1.6007e-03  6.3352e-03  2.9200e-03  1.9561e+01  1.5914e-03  0:01:47 1583
   418  1.6504e-03  6.1631e-03  2.8728e-03  1.9801e+01  1.6404e-03  0:01:25 1582

  iter  continuity  x-velocity  y-velocity  z-velocity      energy     time/iter
   419  1.7048e-03  5.9816e-03  2.8498e-03  2.0007e+01  1.6944e-03  0:01:08 1581
   420  1.7519e-03  5.7994e-03  2.8482e-03  2.0194e+01  1.7414e-03  0:00:55 1580
   421  1.7803e-03  5.6221e-03  2.8664e-03  2.0313e+01  1.7698e-03  0:00:44 1579
   422  1.7839e-03  5.4568e-03  2.9030e-03  2.0368e+01  1.7736e-03  0:00:35 1578
   423  1.7647e-03  5.3101e-03  2.9532e-03  2.0474e+01  1.7547e-03  0:00:28 1577
   424  1.7288e-03  5.1852e-03  3.0145e-03  2.0667e+01  1.7194e-03  0:00:22 1576
   425  1.6823e-03  5.0744e-03  3.0826e-03  2.0899e+01  1.6735e-03  0:00:18 1575
   426  1.6382e-03  4.9803e-03  3.1533e-03  2.1155e+01  1.6304e-03  0:00:14 1574
   427  1.6079e-03  4.9048e-03  3.2230e-03  2.1491e+01  1.6012e-03  0:05:26 1573
   428  1.6000e-03  4.8463e-03  3.2886e-03  2.1861e+01  1.5946e-03  0:04:21 1572
   429  1.6266e-03  4.8053e-03  3.3469e-03  2.2187e+01  1.6225e-03  0:03:28 1571

  iter  continuity  x-velocity  y-velocity  z-velocity      energy     time/iter
   430  1.6939e-03  4.7861e-03  3.3946e-03  2.2547e+01  1.6910e-03  0:02:47 1570
   431  1.7892e-03  4.7834e-03  3.4293e-03  2.2881e+01  1.7875e-03  0:02:13 1569
   432  1.9193e-03  4.7979e-03  3.4510e-03  2.3213e+01  1.9184e-03  0:01:46 1568
   433  2.0740e-03  4.8293e-03  3.4619e-03  2.3673e+01  2.0736e-03  0:01:25 1567
   434  2.2371e-03  4.8713e-03  3.4623e-03  2.4278e+01  2.2370e-03  0:01:08 1566
   435  2.4005e-03  4.9242e-03  3.4515e-03  2.5085e+01  2.4005e-03  0:00:54 1565
   436  2.5531e-03  4.9826e-03  3.4310e-03  2.5937e+01  2.5531e-03  0:00:44 1564
   437  2.7193e-03  5.0534e-03  3.4011e-03  2.6111e+01  2.7191e-03  0:00:35 1563
   438  2.8617e-03  5.1365e-03  3.3634e-03  2.5807e+01  2.8612e-03  0:00:28 1562
   439  2.9409e-03  5.2242e-03  3.3204e-03  2.5585e+01  2.9402e-03  0:00:22 1561
   440  2.9136e-03  5.3099e-03  3.2722e-03  2.5762e+01  2.9125e-03  0:00:18 1560

  iter  continuity  x-velocity  y-velocity  z-velocity      energy     time/iter
   441  2.8293e-03  5.3927e-03  3.2172e-03  2.6373e+01  2.8277e-03  0:00:14 1559
   442  2.7243e-03  5.4655e-03  3.1570e-03  2.7434e+01  2.7221e-03  0:05:23 1558
   443  2.6433e-03  5.5263e-03  3.0946e-03  2.9127e+01  2.6405e-03  0:04:18 1557
   444  2.5535e-03  5.5680e-03  3.0349e-03  3.1457e+01  2.5498e-03  0:03:26 1556
   445  2.4770e-03  5.5940e-03  2.9953e-03  3.4349e+01  2.4724e-03  0:02:45 1555
   446  2.4354e-03  5.6155e-03  2.9877e-03  3.7407e+01  2.4297e-03  0:02:12 1554
   447  2.3868e-03  5.6129e-03  2.9269e-03  4.0143e+01  2.3801e-03  0:01:45 1553
   448  2.3610e-03  5.5991e-03  2.8904e-03  4.2734e+01  2.3530e-03  0:01:24 1552
   449  2.3572e-03  5.5728e-03  2.8912e-03  4.4845e+01  2.3479e-03  0:01:07 1551
   450  2.3621e-03  5.5325e-03  2.9072e-03  4.6387e+01  2.3516e-03  0:00:54 1550
   451  2.3573e-03  5.4804e-03  2.9364e-03  4.7307e+01  2.3456e-03  0:00:43 1549

  iter  continuity  x-velocity  y-velocity  z-velocity      energy     time/iter
   452  2.3147e-03  5.4241e-03  2.9835e-03  4.7352e+01  2.3014e-03  0:00:34 1548
   453  2.2933e-03  5.3769e-03  3.0490e-03  4.6807e+01  2.2786e-03  0:00:28 1547
   454  2.3089e-03  5.3422e-03  3.1266e-03  4.5924e+01  2.2930e-03  0:00:22 1546
   455  2.3489e-03  5.3160e-03  3.2061e-03  4.5017e+01  2.3321e-03  0:00:18 1545
   456  2.4080e-03  5.2836e-03  3.2989e-03  4.4359e+01  2.3905e-03  0:00:14 1544
   457  2.4903e-03  5.2667e-03  3.3981e-03  4.4491e+01  2.4725e-03  0:00:11 1543
   458  2.5976e-03  5.2695e-03  3.5016e-03  4.5306e+01  2.5797e-03  0:05:17 1542
   459  2.7268e-03  5.2818e-03  3.6062e-03  4.7117e+01  2.7091e-03  0:04:14 1541
   460  2.8662e-03  5.2969e-03  3.7078e-03  4.8819e+01  2.8488e-03  0:03:23 1540
   461  3.0089e-03  5.3267e-03  3.8067e-03  5.0647e+01  2.9919e-03  0:02:42 1539
   462  3.0750e-03  5.3856e-03  3.9000e-03  5.2308e+01  3.0583e-03  0:02:10 1538

  iter  continuity  x-velocity  y-velocity  z-velocity      energy     time/iter
   463  3.0608e-03  5.4543e-03  3.9903e-03  5.3805e+01  3.0441e-03  0:01:44 1537
   464  2.9807e-03  5.5200e-03  4.0760e-03  5.4778e+01  2.9637e-03  0:01:23 1536
   465  2.8627e-03  5.5728e-03  4.1527e-03  5.5635e+01  2.8453e-03  0:01:06 1535
   466  2.7113e-03  5.6242e-03  4.2180e-03  5.7132e+01  2.6933e-03  0:00:53 1534
   467  2.5414e-03  5.6991e-03  4.2712e-03  5.8763e+01  2.5229e-03  0:00:42 1533
   468  2.3822e-03  5.7701e-03  4.3162e-03  6.0588e+01  2.3632e-03  0:00:34 1532
   469  2.2663e-03  5.8229e-03  4.3545e-03  6.2330e+01  2.2471e-03  0:00:27 1531
   470  2.1793e-03  5.8587e-03  4.3890e-03  6.4011e+01  2.1601e-03  0:05:28 1530
   471  2.1582e-03  5.8728e-03  4.4151e-03  6.5057e+01  2.1396e-03  0:04:22 1529
   472  2.2447e-03  5.8837e-03  4.4229e-03  6.5547e+01  2.2276e-03  0:03:29 1528
   473  2.4399e-03  5.8926e-03  4.4172e-03  6.5919e+01  2.4247e-03  0:02:47 1527

  iter  continuity  x-velocity  y-velocity  z-velocity      energy     time/iter
   474  2.7153e-03  5.9152e-03  4.4018e-03  6.6518e+01  2.7021e-03  0:02:14 1526
   475  3.0336e-03  5.9364e-03  4.3818e-03  6.7511e+01  3.0222e-03  0:01:47 1525
   476  3.3705e-03  5.9533e-03  4.3557e-03  6.9647e+01  3.3604e-03  0:01:26 1524
   477  3.6304e-03  5.9732e-03  4.3235e-03  7.2466e+01  3.6212e-03  0:01:08 1523
   478  3.7942e-03  6.0078e-03  4.2899e-03  7.5371e+01  3.7855e-03  0:00:55 1522
   479  3.8516e-03  6.0565e-03  4.2565e-03  7.7852e+01  3.8432e-03  0:00:44 1521
   480  3.8367e-03  6.1091e-03  4.2221e-03  8.0067e+01  3.8285e-03  0:00:35 1520
   481  3.7684e-03  6.1506e-03  4.1841e-03  8.0855e+01  3.7602e-03  0:00:28 1519
   482  3.6353e-03  6.1620e-03  4.1359e-03  8.1315e+01  3.6270e-03  0:00:22 1518
   483  3.4193e-03  6.1625e-03  4.0832e-03  8.2896e+01  3.4108e-03  0:00:18 1517
   484  3.1066e-03  6.1568e-03  4.0223e-03  8.3540e+01  3.0975e-03  0:00:14 1516

  iter  continuity  x-velocity  y-velocity  z-velocity      energy     time/iter
   485  2.7606e-03  6.1391e-03  3.9537e-03  8.3228e+01  2.7506e-03  0:00:11 1515
   486  2.4592e-03  6.0924e-03  3.8743e-03  8.2080e+01  2.4481e-03  0:05:12 1514
   487  2.2521e-03  6.0225e-03  3.8083e-03  8.2498e+01  2.2402e-03  0:04:09 1513
   488  2.1757e-03  5.9621e-03  3.7685e-03  8.2438e+01  2.1634e-03  0:03:19 1512
   489  2.1872e-03  5.8812e-03  3.6699e-03  8.2019e+01  2.1750e-03  0:02:39 1511
   490  2.2513e-03  5.8076e-03  3.6076e-03  8.1071e+01  2.2393e-03  0:02:07 1510
   491  2.3250e-03  5.7485e-03  3.5748e-03  8.0030e+01  2.3134e-03  0:01:42 1509
   492  2.4135e-03  5.7039e-03  3.5437e-03  8.0124e+01  2.4024e-03  0:01:21 1508
   493  2.5165e-03  5.6454e-03  3.5111e-03  8.0934e+01  2.5058e-03  0:01:05 1507
   494  2.6282e-03  5.5826e-03  3.4782e-03  8.2234e+01  2.6180e-03  0:00:52 1506
   495  2.7405e-03  5.5755e-03  3.4517e-03  8.4911e+01  2.7308e-03  0:00:42 1505

  iter  continuity  x-velocity  y-velocity  z-velocity      energy     time/iter
   496  2.8559e-03  5.6089e-03  3.4354e-03  8.8681e+01  2.8467e-03  0:00:33 1504
   497  2.9845e-03  5.6489e-03  3.4267e-03  9.3100e+01  2.9757e-03  0:00:27 1503
   498  3.1347e-03  5.6730e-03  3.4222e-03  9.9193e+01  3.1264e-03  0:00:21 1502
   499  3.2991e-03  5.6993e-03  3.4249e-03  1.0650e+02  3.2913e-03  0:00:17 1501
   500  3.4970e-03  5.7600e-03  3.4307e-03  1.1498e+02  3.4897e-03  0:05:14 1500
   501  3.6954e-03  5.8294e-03  3.4445e-03  1.2323e+02  3.6886e-03  0:04:11 1499
   502  3.7499e-03  5.9038e-03  3.4623e-03  1.3038e+02  3.7432e-03  0:03:20 1498
   503  3.6860e-03  5.9820e-03  3.4792e-03  1.3669e+02  3.6793e-03  0:02:40 1497
   504  3.5648e-03  6.0822e-03  3.5009e-03  1.4251e+02  3.5582e-03  0:02:08 1496
   505  3.4186e-03  6.1807e-03  3.5295e-03  1.4674e+02  3.4120e-03  0:01:42 1495
   506  3.2500e-03  6.2308e-03  3.5616e-03  1.4995e+02  3.2433e-03  0:01:22 1494

  iter  continuity  x-velocity  y-velocity  z-velocity      energy     time/iter
   507  3.0456e-03  6.2341e-03  3.5841e-03  1.4936e+02  3.0385e-03  0:01:05 1493
   508  2.8099e-03  6.2071e-03  3.5939e-03  1.4691e+02  2.8024e-03  0:00:52 1492
   509  2.5577e-03  6.1980e-03  3.5973e-03  1.4248e+02  2.5497e-03  0:00:42 1491
   510  2.3186e-03  6.1729e-03  3.5993e-03  1.3707e+02  2.3099e-03  0:00:33 1490
   511  2.1771e-03  6.1157e-03  3.6021e-03  1.3260e+02  2.1679e-03  0:00:27 1489
   512  2.2175e-03  6.0217e-03  3.6038e-03  1.3021e+02  2.2083e-03  0:00:21 1488
   513  2.4714e-03  5.9112e-03  3.5994e-03  1.3203e+02  2.4628e-03  0:00:17 1487
   514  2.8777e-03  5.8091e-03  3.5919e-03  1.3915e+02  2.8700e-03  0:00:14 1486
   515  3.3607e-03  5.7335e-03  3.5775e-03  1.4956e+02  3.3537e-03  0:00:11 1485
   516  3.8601e-03  5.6812e-03  3.5623e-03  1.6076e+02  3.8536e-03  0:00:09 1484
   517  4.3010e-03  5.6395e-03  3.5497e-03  1.7218e+02  4.2946e-03  0:05:04 1483

  iter  continuity  x-velocity  y-velocity  z-velocity      energy     time/iter
   518  4.5882e-03  5.6055e-03  3.5433e-03  1.8178e+02  4.5818e-03  0:04:03 1482
   519  4.6981e-03  5.5916e-03  3.5435e-03  1.8894e+02  4.6915e-03  0:03:14 1481
   520  4.6711e-03  5.6088e-03  3.5472e-03  1.9347e+02  4.6642e-03  0:02:35 1480
   521  4.5125e-03  5.6381e-03  3.5494e-03  1.9574e+02  4.5050e-03  0:02:04 1479
   522  4.2657e-03  5.6451e-03  3.5433e-03  1.9608e+02  4.2574e-03  0:01:39 1478
   523  3.9602e-03  5.6210e-03  3.5291e-03  1.9705e+02  3.9510e-03  0:01:19 1477
   524  3.6047e-03  5.5803e-03  3.5092e-03  1.9748e+02  3.5943e-03  0:01:03 1476
   525  3.2510e-03  5.5123e-03  3.4821e-03  1.9811e+02  3.2391e-03  0:00:51 1475
   526  2.9949e-03  5.4325e-03  3.4409e-03  1.9883e+02  2.9814e-03  0:00:40 1474
   527  2.9161e-03  5.3424e-03  3.3934e-03  2.0015e+02  2.9016e-03  0:00:32 1473
   528  3.0139e-03  5.2453e-03  3.3665e-03  2.0236e+02  2.9991e-03  0:00:26 1472

  iter  continuity  x-velocity  y-velocity  z-velocity      energy     time/iter
   529  3.2197e-03  5.1420e-03  3.3103e-03  2.0493e+02  3.2050e-03  0:00:21 1471
   530  3.4555e-03  5.0678e-03  3.2669e-03  2.0820e+02  3.4411e-03  0:00:17 1470
   531  3.6481e-03  5.0243e-03  3.2591e-03  2.1324e+02  3.6338e-03  0:00:13 1469
   532  3.7871e-03  5.0020e-03  3.2691e-03  2.1954e+02  3.7726e-03  0:05:04 1468
   533  3.8832e-03  4.9770e-03  3.2916e-03  2.2624e+02  3.8686e-03  0:04:03 1467
   534  3.9492e-03  4.9280e-03  3.3231e-03  2.3297e+02  3.9342e-03  0:03:14 1466
   535  3.9921e-03  4.8972e-03  3.3605e-03  2.3959e+02  3.9768e-03  0:02:35 1465
   536  3.9652e-03  4.9596e-03  3.3996e-03  2.4637e+02  3.9494e-03  0:02:04 1464
   537  3.8738e-03  5.0868e-03  3.4446e-03  2.5473e+02  3.8574e-03  0:01:39 1463
   538  3.7315e-03  5.2014e-03  3.4996e-03  2.6270e+02  3.7141e-03  0:01:19 1462
   539  3.5495e-03  5.2829e-03  3.5592e-03  2.6947e+02  3.5309e-03  0:01:03 1461

  iter  continuity  x-velocity  y-velocity  z-velocity      energy     time/iter
   540  3.3406e-03  5.3347e-03  3.6199e-03  2.7460e+02  3.3206e-03  0:00:51 1460
   541  3.1190e-03  5.3688e-03  3.6802e-03  2.7880e+02  3.0973e-03  0:00:41 1459
   542  2.8925e-03  5.3737e-03  3.7425e-03  2.8241e+02  2.8687e-03  0:00:32 1458
   543  2.6752e-03  5.3497e-03  3.8070e-03  2.8505e+02  2.6492e-03  0:00:26 1457
   544  2.4810e-03  5.3191e-03  3.8672e-03  2.8623e+02  2.4527e-03  0:00:21 1456
   545  2.3156e-03  5.2971e-03  3.9236e-03  2.8851e+02  2.2850e-03  0:00:17 1455
   546  2.1897e-03  5.2551e-03  3.9803e-03  2.9083e+02  2.1570e-03  0:00:13 1454
   547  2.1277e-03  5.1835e-03  4.0411e-03  2.9251e+02  2.0938e-03  0:00:11 1453
   548  2.1408e-03  5.0985e-03  4.1014e-03  2.9680e+02  2.1068e-03  0:00:08 1452
   549  2.2353e-03  5.0275e-03  4.1567e-03  3.0516e+02  2.2024e-03  0:04:57 1451
   550  2.4077e-03  4.9726e-03  4.2067e-03  3.1781e+02  2.3770e-03  0:03:57 1450

  iter  continuity  x-velocity  y-velocity  z-velocity      energy     time/iter
   551  2.6460e-03  4.9193e-03  4.2513e-03  3.3394e+02  2.6178e-03  0:03:10 1449
   552  2.9270e-03  4.8676e-03  4.2906e-03  3.5324e+02  2.9012e-03  0:02:32 1448
   553  3.2166e-03  4.8220e-03  4.3262e-03  3.7564e+02  3.1928e-03  0:02:01 1447
   554  3.4815e-03  4.7902e-03  4.3584e-03  4.0021e+02  3.4592e-03  0:01:37 1446
   555  3.7044e-03  4.7838e-03  4.3877e-03  4.2557e+02  3.6830e-03  0:01:18 1445
   556  3.8623e-03  4.8025e-03  4.4117e-03  4.4981e+02  3.8414e-03  0:01:02 1444
   557  3.9474e-03  4.8370e-03  4.4326e-03  4.7353e+02  3.9266e-03  0:00:50 1443
   558  3.9654e-03  4.8799e-03  4.4491e-03  4.9597e+02  3.9443e-03  0:00:40 1442
   559  3.9145e-03  4.9328e-03  4.4578e-03  5.1696e+02  3.8926e-03  0:00:32 1441
   560  3.7936e-03  4.9908e-03  4.4573e-03  5.3636e+02  3.7707e-03  0:00:25 1440
   561  3.6278e-03  5.0357e-03  4.4501e-03  5.5244e+02  3.6034e-03  0:00:20 1439

  iter  continuity  x-velocity  y-velocity  z-velocity      energy     time/iter
   562  3.4614e-03  5.0709e-03  4.4349e-03  5.6416e+02  3.4353e-03  0:00:16 1438
   563  3.3011e-03  5.0824e-03  4.4139e-03  5.7329e+02  3.2731e-03  0:00:13 1437
   564  3.1548e-03  5.0739e-03  4.3869e-03  5.7984e+02  3.1249e-03  0:00:10 1436
   565  3.0615e-03  5.0621e-03  4.3781e-03  5.8587e+02  3.0300e-03  0:04:55 1435
   566  3.0357e-03  5.0278e-03  4.3248e-03  5.9216e+02  3.0031e-03  0:03:56 1434
   567  3.1001e-03  4.9821e-03  4.2848e-03  5.9822e+02  3.0674e-03  0:03:09 1433
   568  3.2178e-03  4.9556e-03  4.2642e-03  6.0481e+02  3.1856e-03  0:02:31 1432
   569  3.3456e-03  4.9264e-03  4.2240e-03  6.1314e+02  3.3138e-03  0:02:01 1431
   570  3.4701e-03  4.9151e-03  4.2048e-03  6.2335e+02  3.4387e-03  0:01:36 1430
   571  3.5648e-03  4.9099e-03  4.2009e-03  6.3771e+02  3.5336e-03  0:01:17 1429
   572  3.6046e-03  4.9007e-03  4.2064e-03  6.4936e+02  3.5731e-03  0:01:02 1428

  iter  continuity  x-velocity  y-velocity  z-velocity      energy     time/iter
   573  3.5882e-03  4.8928e-03  4.2202e-03  6.6115e+02  3.5561e-03  0:00:49 1427
   574  3.5364e-03  4.9033e-03  4.2437e-03  6.6878e+02  3.5032e-03  0:00:39 1426
   575  3.4476e-03  4.9393e-03  4.2776e-03  6.7056e+02  3.4131e-03  0:00:31 1425
   576  3.3366e-03  4.9974e-03  4.3203e-03  6.6972e+02  3.3005e-03  0:00:25 1424
   577  3.1991e-03  5.0645e-03  4.3702e-03  6.6574e+02  3.1611e-03  0:00:20 1423
   578  3.0138e-03  5.1345e-03  4.4259e-03  6.6012e+02  2.9732e-03  0:00:16 1422
   579  2.8124e-03  5.1970e-03  4.4876e-03  6.5370e+02  2.7687e-03  0:00:13 1421
   580  2.6032e-03  5.2345e-03  4.5549e-03  6.4757e+02  2.5556e-03  0:00:10 1420
   581  2.4081e-03  5.2564e-03  4.6257e-03  6.4498e+02  2.3565e-03  0:00:08 1419
   582  2.2454e-03  5.2719e-03  4.6970e-03  6.4758e+02  2.1899e-03  0:04:50 1418
   583  2.1320e-03  5.2764e-03  4.7677e-03  6.5737e+02  2.0735e-03  0:03:52 1417

  iter  continuity  x-velocity  y-velocity  z-velocity      energy     time/iter
   584  2.0900e-03  5.2729e-03  4.8383e-03  6.7350e+02  2.0304e-03  0:03:05 1416
   585  2.1187e-03  5.2650e-03  4.9093e-03  6.9540e+02  2.0600e-03  0:02:28 1415
   586  2.2048e-03  5.2553e-03  4.9783e-03  7.2136e+02  2.1487e-03  0:01:59 1414
   587  2.3316e-03  5.2413e-03  5.0429e-03  7.5394e+02  2.2788e-03  0:01:35 1413
   588  2.4810e-03  5.2245e-03  5.1023e-03  7.8615e+02  2.4317e-03  0:01:16 1412
   589  2.6238e-03  5.2086e-03  5.1545e-03  8.1842e+02  2.5776e-03  0:01:01 1411
   590  2.7599e-03  5.2025e-03  5.2002e-03  8.5518e+02  2.7163e-03  0:00:48 1410
   591  2.8613e-03  5.2000e-03  5.2401e-03  8.9957e+02  2.8196e-03  0:00:39 1409
   592  2.9156e-03  5.1931e-03  5.2755e-03  9.4937e+02  2.8750e-03  0:00:31 1408
   593  2.9140e-03  5.1917e-03  5.3049e-03  1.0074e+03  2.8739e-03  0:00:25 1407
   594  2.8639e-03  5.1870e-03  5.3238e-03  1.0622e+03  2.8235e-03  0:00:20 1406

  iter  continuity  x-velocity  y-velocity  z-velocity      energy     time/iter
   595  2.7672e-03  5.1914e-03  5.3332e-03  1.1102e+03  2.7258e-03  0:00:16 1405
   596  2.6474e-03  5.2093e-03  5.3310e-03  1.1556e+03  2.6048e-03  0:00:13 1404
   597  2.5088e-03  5.2186e-03  5.3145e-03  1.1951e+03  2.4644e-03  0:00:10 1403
   598  2.3681e-03  5.2305e-03  5.2869e-03  1.2280e+03  2.3219e-03  0:00:08 1402
   599  2.2431e-03  5.2455e-03  5.2484e-03  1.2546e+03  2.1949e-03  0:04:47 1401
   600  2.1569e-03  5.2537e-03  5.2036e-03  1.2773e+03  2.1075e-03  0:03:49 1400
   601  2.1097e-03  5.2565e-03  5.1693e-03  1.3009e+03  2.0600e-03  0:03:03 1399
   602  2.0765e-03  5.2224e-03  5.0860e-03  1.3173e+03  2.0267e-03  0:02:26 1398
   603  2.0746e-03  5.1872e-03  5.0112e-03  1.3382e+03  2.0254e-03  0:01:57 1397
   604  2.0933e-03  5.1404e-03  4.9365e-03  1.3613e+03  2.0452e-03  0:01:34 1396
   605  2.1299e-03  5.0991e-03  4.8676e-03  1.3893e+03  2.0832e-03  0:01:15 1395

  iter  continuity  x-velocity  y-velocity  z-velocity      energy     time/iter
   606  2.1529e-03  5.0569e-03  4.7911e-03  1.4165e+03  2.1073e-03  0:01:00 1394
   607  2.1632e-03  5.0052e-03  4.7023e-03  1.4467e+03  2.1184e-03  0:00:48 1393
   608  2.1579e-03  4.9496e-03  4.6234e-03  1.4781e+03  2.1135e-03  0:00:38 1392
   609  2.1382e-03  4.8930e-03  4.5495e-03  1.5121e+03  2.0939e-03  0:00:31 1391
   610  2.1156e-03  4.8352e-03  4.4790e-03  1.5388e+03  2.0713e-03  0:00:24 1390
   611  2.0940e-03  4.7762e-03  4.4108e-03  1.5546e+03  2.0497e-03  0:00:20 1389
   612  2.0884e-03  4.7199e-03  4.3461e-03  1.5650e+03  2.0444e-03  0:00:16 1388
   613  2.0897e-03  4.6581e-03  4.2863e-03  1.5649e+03  2.0460e-03  0:00:12 1387
   614  2.0990e-03  4.5892e-03  4.2332e-03  1.5499e+03  2.0558e-03  0:00:10 1386
   615  2.1176e-03  4.5126e-03  4.1877e-03  1.5221e+03  2.0751e-03  0:00:08 1385
   616  2.1281e-03  4.4394e-03  4.1502e-03  1.4813e+03  2.0860e-03  0:04:43 1384

  iter  continuity  x-velocity  y-velocity  z-velocity      energy     time/iter
   617  2.1255e-03  4.3731e-03  4.1187e-03  1.4315e+03  2.0835e-03  0:03:46 1383
   618  2.1105e-03  4.3101e-03  4.0936e-03  1.3834e+03  2.0684e-03  0:03:01 1382
   619  2.0921e-03  4.2489e-03  4.0743e-03  1.3456e+03  2.0498e-03  0:02:25 1381
   620  2.0765e-03  4.1891e-03  4.0594e-03  1.3280e+03  2.0339e-03  0:01:56 1380
   621  2.0678e-03  4.1277e-03  4.0493e-03  1.3275e+03  2.0250e-03  0:01:32 1379
   622  2.0581e-03  4.0609e-03  4.0428e-03  1.3328e+03  2.0151e-03  0:01:14 1378
   623  2.0498e-03  3.9946e-03  4.0388e-03  1.3445e+03  2.0066e-03  0:00:59 1377
   624  2.0516e-03  3.9319e-03  4.0368e-03  1.3597e+03  2.0084e-03  0:00:47 1376
   625  2.0679e-03  3.8731e-03  4.0358e-03  1.3791e+03  2.0248e-03  0:00:38 1375
   626  2.0853e-03  3.8153e-03  4.0347e-03  1.3971e+03  2.0425e-03  0:00:30 1374
   627  2.1014e-03  3.7611e-03  4.0327e-03  1.4096e+03  2.0589e-03  0:00:24 1373

  iter  continuity  x-velocity  y-velocity  z-velocity      energy     time/iter
   628  2.1247e-03  3.7177e-03  4.0293e-03  1.4189e+03  2.0825e-03  0:00:19 1372
   629  2.1600e-03  3.6834e-03  4.0242e-03  1.4367e+03  2.1185e-03  0:00:15 1371
   630  2.1689e-03  3.6564e-03  4.0157e-03  1.4439e+03  2.1275e-03  0:00:12 1370
   631  2.1978e-03  3.6367e-03  4.0029e-03  1.4471e+03  2.1570e-03  0:00:10 1369
   632  2.2412e-03  3.6173e-03  3.9865e-03  1.4446e+03  2.2012e-03  0:00:08 1368
   633  2.2868e-03  3.6032e-03  3.9669e-03  1.4404e+03  2.2475e-03  0:04:40 1367
   634  2.3516e-03  3.5962e-03  3.9458e-03  1.4474e+03  2.3135e-03  0:03:44 1366
   635  2.4241e-03  3.5876e-03  3.9225e-03  1.4733e+03  2.3872e-03  0:02:59 1365
   636  2.4772e-03  3.5885e-03  3.8980e-03  1.5042e+03  2.4411e-03  0:02:23 1364
   637  2.5469e-03  3.5976e-03  3.8725e-03  1.5498e+03  2.5120e-03  0:01:54 1363
   638  2.6127e-03  3.5950e-03  3.8439e-03  1.5925e+03  2.5786e-03  0:01:31 1362

  iter  continuity  x-velocity  y-velocity  z-velocity      energy     time/iter
   639  2.6484e-03  3.5923e-03  3.8147e-03  1.6223e+03  2.6150e-03  0:01:13 1361
   640  2.7054e-03  3.5904e-03  3.7856e-03  1.6332e+03  2.6728e-03  0:00:58 1360
   641  2.7856e-03  3.5920e-03  3.7562e-03  1.6656e+03  2.7540e-03  0:00:47 1359
   642  2.8281e-03  3.5842e-03  3.7286e-03  1.6931e+03  2.7971e-03  0:00:37 1358
   643  2.8435e-03  3.5588e-03  3.7019e-03  1.6857e+03  2.8129e-03  0:00:30 1357
   644  2.8406e-03  3.5241e-03  3.6774e-03  1.6934e+03  2.8102e-03  0:00:24 1356
   645  2.8564e-03  3.4937e-03  3.6570e-03  1.6975e+03  2.8264e-03  0:00:19 1355
   646  2.8841e-03  3.4637e-03  3.6441e-03  1.7128e+03  2.8546e-03  0:00:15 1354
   647  2.8900e-03  3.4373e-03  3.6367e-03  1.7416e+03  2.8607e-03  0:00:12 1353
   648  2.9018e-03  3.4079e-03  3.6335e-03  1.7583e+03  2.8728e-03  0:00:10 1352
   649  3.0072e-03  3.3744e-03  3.6358e-03  1.7782e+03  2.9794e-03  0:00:08 1351

  iter  continuity  x-velocity  y-velocity  z-velocity      energy     time/iter
   650  3.0500e-03  3.3457e-03  3.6454e-03  1.7861e+03  3.0227e-03  0:04:36 1350
   651  3.0409e-03  3.3145e-03  3.6627e-03  1.7983e+03  3.0138e-03  0:03:41 1349
   652  3.1159e-03  3.2784e-03  3.6873e-03  1.8271e+03  3.0896e-03  0:02:57 1348
   653  3.1368e-03  3.2452e-03  3.7179e-03  1.8620e+03  3.1110e-03  0:02:21 1347
   654  3.1285e-03  3.2245e-03  3.7524e-03  1.8898e+03  3.1028e-03  0:01:53 1346
   655  3.1782e-03  3.2056e-03  3.7886e-03  1.9159e+03  3.1530e-03  0:01:30 1345
   656  3.1943e-03  3.1840e-03  3.8271e-03  1.9237e+03  3.1694e-03  0:01:12 1344
   657  3.1951e-03  3.1771e-03  3.8674e-03  1.9082e+03  3.1704e-03  0:00:58 1343
   658  3.2096e-03  3.1733e-03  3.9097e-03  1.9105e+03  3.1851e-03  0:00:46 1342
   659  3.2398e-03  3.1844e-03  3.9525e-03  1.9097e+03  3.2156e-03  0:00:37 1341
   660  3.2255e-03  3.2028e-03  3.9944e-03  1.9075e+03  3.2014e-03  0:00:29 1340

  iter  continuity  x-velocity  y-velocity  z-velocity      energy     time/iter
   661  3.1948e-03  3.2157e-03  4.0331e-03  1.9139e+03  3.1705e-03  0:00:24 1339
   662  3.1917e-03  3.2266e-03  4.0682e-03  1.9387e+03  3.1675e-03  0:00:19 1338
   663  3.1600e-03  3.2459e-03  4.0990e-03  1.9289e+03  3.1357e-03  0:00:15 1337
   664  3.0549e-03  3.2771e-03  4.1272e-03  1.9201e+03  3.0299e-03  0:00:12 1336
   665  2.9806e-03  3.3155e-03  4.1464e-03  1.9366e+03  2.9552e-03  0:00:10 1335
   666  3.0004e-03  3.3601e-03  4.1582e-03  1.9528e+03  2.9753e-03  0:00:08 1334
   667  3.0038e-03  3.4080e-03  4.1633e-03  1.9648e+03  2.9789e-03  0:04:33 1333
   668  3.0174e-03  3.4564e-03  4.1621e-03  1.9947e+03  2.9927e-03  0:03:38 1332
   669  3.0486e-03  3.4980e-03  4.1524e-03  1.9867e+03  3.0243e-03  0:02:54 1331
   670  3.0982e-03  3.5387e-03  4.1367e-03  1.9847e+03  3.0743e-03  0:02:19 1330
   671  3.1393e-03  3.5884e-03  4.1149e-03  1.9954e+03  3.1159e-03  0:01:51 1329

  iter  continuity  x-velocity  y-velocity  z-velocity      energy     time/iter
   672  3.1926e-03  3.6256e-03  4.0866e-03  2.0095e+03  3.1696e-03  0:01:29 1328
   673  3.1947e-03  3.6441e-03  4.0526e-03  1.9837e+03  3.1718e-03  0:01:11 1327
   674  3.2267e-03  3.6710e-03  4.0097e-03  1.9522e+03  3.2042e-03  0:00:57 1326
   675  3.3014e-03  3.6945e-03  3.9608e-03  1.9520e+03  3.2795e-03  0:00:45 1325
   676  3.3527e-03  3.7283e-03  3.9079e-03  1.9643e+03  3.3312e-03  0:00:36 1324
   677  3.3642e-03  3.7382e-03  3.8531e-03  1.9622e+03  3.3429e-03  0:00:29 1323
   678  3.3515e-03  3.7233e-03  3.7944e-03  1.9738e+03  3.3302e-03  0:00:23 1322
   679  3.4131e-03  3.7154e-03  3.7332e-03  1.9743e+03  3.3924e-03  0:00:19 1321
   680  3.5012e-03  3.7058e-03  3.6774e-03  1.9963e+03  3.4813e-03  0:00:15 1320
   681  3.4821e-03  3.7083e-03  3.6278e-03  2.0215e+03  3.4622e-03  0:00:12 1319
   682  3.4735e-03  3.7179e-03  3.5794e-03  2.0363e+03  3.4539e-03  0:04:33 1318

  iter  continuity  x-velocity  y-velocity  z-velocity      energy     time/iter
   683  3.5608e-03  3.7164e-03  3.5319e-03  2.0714e+03  3.5419e-03  0:03:38 1317
   684  3.5996e-03  3.7132e-03  3.4909e-03  2.1109e+03  3.5810e-03  0:02:55 1316
   685  3.5479e-03  3.7083e-03  3.4570e-03  2.1314e+03  3.5294e-03  0:02:20 1315
   686  3.5502e-03  3.6887e-03  3.4248e-03  2.1625e+03  3.5319e-03  0:01:52 1314
   687  3.5770e-03  3.6648e-03  3.3987e-03  2.2187e+03  3.5591e-03  0:01:29 1313
   688  3.5371e-03  3.6447e-03  3.3780e-03  2.2426e+03  3.5193e-03  0:01:11 1312
   689  3.5394e-03  3.6144e-03  3.3594e-03  2.2671e+03  3.5218e-03  0:00:57 1311
   690  3.5743e-03  3.5723e-03  3.3460e-03  2.2871e+03  3.5572e-03  0:00:46 1310
   691  3.5481e-03  3.5346e-03  3.3366e-03  2.2673e+03  3.5312e-03  0:00:36 1309
   692  3.5330e-03  3.4924e-03  3.3357e-03  2.2375e+03  3.5163e-03  0:00:29 1308
   693  3.5605e-03  3.4618e-03  3.3419e-03  2.2067e+03  3.5442e-03  0:00:23 1307

  iter  continuity  x-velocity  y-velocity  z-velocity      energy     time/iter
   694  3.4978e-03  3.4413e-03  3.3565e-03  2.1713e+03  3.4815e-03  0:00:19 1306
   695  3.4226e-03  3.4301e-03  3.3745e-03  2.1323e+03  3.4064e-03  0:00:15 1305
   696  3.3994e-03  3.4163e-03  3.3951e-03  2.1255e+03  3.3834e-03  0:00:12 1304
   697  3.3596e-03  3.4113e-03  3.4188e-03  2.1353e+03  3.3438e-03  0:00:09 1303
   698  3.2632e-03  3.4257e-03  3.4439e-03  2.1275e+03  3.2473e-03  0:04:28 1302
   699  3.1874e-03  3.4409e-03  3.4716e-03  2.1236e+03  3.1716e-03  0:03:34 1301
   700  3.1439e-03  3.4443e-03  3.4925e-03  2.1192e+03  3.1283e-03  0:02:51 1300
   701  3.0594e-03  3.4439e-03  3.4965e-03  2.1167e+03  3.0438e-03  0:02:17 1299
   702  2.9665e-03  3.4418e-03  3.5023e-03  2.1068e+03  2.9510e-03  0:01:49 1298
   703  2.9372e-03  3.4271e-03  3.5052e-03  2.0769e+03  2.9219e-03  0:01:27 1297
   704  2.9409e-03  3.4187e-03  3.5018e-03  2.0528e+03  2.9259e-03  0:01:10 1296

  iter  continuity  x-velocity  y-velocity  z-velocity      energy     time/iter
   705  3.0031e-03  3.4234e-03  3.5080e-03  2.0453e+03  2.9887e-03  0:00:56 1295
   706  3.0365e-03  3.4092e-03  3.4992e-03  2.0118e+03  3.0225e-03  0:00:45 1294
   707  3.0591e-03  3.4068e-03  3.4740e-03  1.9683e+03  3.0454e-03  0:00:36 1293
   708  3.1544e-03  3.4075e-03  3.4512e-03  1.9483e+03  3.1414e-03  0:00:29 1292
   709  3.2437e-03  3.4402e-03  3.4260e-03  1.9499e+03  3.2312e-03  0:00:23 1291
   710  3.3278e-03  3.4722e-03  3.3998e-03  1.9511e+03  3.3158e-03  0:00:18 1290
   711  3.3464e-03  3.4802e-03  3.3695e-03  1.9637e+03  3.3347e-03  0:00:15 1289
   712  3.4473e-03  3.4966e-03  3.3306e-03  1.9652e+03  3.4361e-03  0:00:12 1288
   713  3.5915e-03  3.5150e-03  3.2928e-03  2.0008e+03  3.5809e-03  0:00:09 1287
   714  3.6376e-03  3.5576e-03  3.2578e-03  2.0541e+03  3.6273e-03  0:00:07 1286
   715  3.6368e-03  3.6057e-03  3.2216e-03  2.0878e+03  3.6267e-03  0:04:23 1285

  iter  continuity  x-velocity  y-velocity  z-velocity      energy     time/iter
   716  3.7153e-03  3.6511e-03  3.1807e-03  2.1583e+03  3.7055e-03  0:03:30 1284
   717  3.7735e-03  3.7028e-03  3.1414e-03  2.2285e+03  3.7640e-03  0:02:48 1283
   718  3.7575e-03  3.7552e-03  3.1033e-03  2.2941e+03  3.7482e-03  0:02:14 1282
   719  3.7599e-03  3.7990e-03  3.0601e-03  2.3494e+03  3.7509e-03  0:01:47 1281
   720  3.7750e-03  3.8322e-03  3.0121e-03  2.4112e+03  3.7662e-03  0:01:26 1280
   721  3.7632e-03  3.8577e-03  2.9545e-03  2.4550e+03  3.7546e-03  0:01:09 1279
   722  3.7807e-03  3.8468e-03  2.8885e-03  2.4805e+03  3.7724e-03  0:00:55 1278
   723  3.8111e-03  3.8071e-03  2.8185e-03  2.4921e+03  3.8031e-03  0:00:44 1277
   724  3.7668e-03  3.7587e-03  2.7479e-03  2.4600e+03  3.7589e-03  0:00:35 1276
   725  3.7691e-03  3.6942e-03  2.6795e-03  2.4193e+03  3.7615e-03  0:00:28 1275
   726  3.8037e-03  3.6422e-03  2.6169e-03  2.3711e+03  3.7963e-03  0:00:22 1274

  iter  continuity  x-velocity  y-velocity  z-velocity      energy     time/iter
   727  3.7475e-03  3.6059e-03  2.5636e-03  2.3202e+03  3.7403e-03  0:00:18 1273
   728  3.6798e-03  3.5648e-03  2.5157e-03  2.2586e+03  3.6727e-03  0:00:14 1272
   729  3.6733e-03  3.5308e-03  2.4725e-03  2.2371e+03  3.6663e-03  0:00:11 1271
   730  3.6494e-03  3.5171e-03  2.4318e-03  2.2111e+03  3.6426e-03  0:00:09 1270
   731  3.5356e-03  3.5084e-03  2.4064e-03  2.1719e+03  3.5288e-03  0:04:21 1269
   732  3.4566e-03  3.5002e-03  2.3806e-03  2.1392e+03  3.4498e-03  0:03:29 1268
   733  3.4354e-03  3.4606e-03  2.3292e-03  2.1174e+03  3.4288e-03  0:02:47 1267
   734  3.3867e-03  3.4323e-03  2.2867e-03  2.1188e+03  3.3802e-03  0:02:13 1266
   735  3.2674e-03  3.3794e-03  2.2470e-03  2.0841e+03  3.2609e-03  0:01:47 1265
   736  3.2728e-03  3.3121e-03  2.2104e-03  2.0584e+03  3.2663e-03  0:01:25 1264
   737  3.3302e-03  3.2788e-03  2.1710e-03  2.0632e+03  3.3239e-03  0:01:08 1263

  iter  continuity  x-velocity  y-velocity  z-velocity      energy     time/iter
   738  3.3805e-03  3.2199e-03  2.1569e-03  2.0629e+03  3.3743e-03  0:00:54 1262
   739  3.4392e-03  3.1482e-03  2.1255e-03  2.0495e+03  3.4331e-03  0:00:44 1261
   740  3.4442e-03  3.1036e-03  2.0832e-03  2.0227e+03  3.4382e-03  0:00:35 1260
   741  3.5791e-03  3.0750e-03  2.0560e-03  2.0568e+03  3.5732e-03  0:00:28 1259
   742  3.7068e-03  3.0663e-03  2.0352e-03  2.1178e+03  3.7010e-03  0:00:22 1258
   743  3.8202e-03  3.0329e-03  2.0229e-03  2.1245e+03  3.8145e-03  0:00:18 1257
   744  3.8567e-03  2.9886e-03  2.0190e-03  2.1623e+03  3.8511e-03  0:00:14 1256
   745  4.0053e-03  2.9749e-03  2.0115e-03  2.1989e+03  3.9998e-03  0:00:11 1255
   746  4.1785e-03  2.9809e-03  2.0139e-03  2.2770e+03  4.1731e-03  0:00:09 1254
   747  4.2156e-03  3.0079e-03  2.0288e-03  2.3371e+03  4.2102e-03  0:04:18 1253
   748  4.2000e-03  3.0462e-03  2.0523e-03  2.3651e+03  4.1947e-03  0:03:26 1252

  iter  continuity  x-velocity  y-velocity  z-velocity      energy     time/iter
   749  4.2393e-03  3.0990e-03  2.0739e-03  2.4006e+03  4.2340e-03  0:02:45 1251
   750  4.2626e-03  3.1614e-03  2.1029e-03  2.4676e+03  4.2573e-03  0:02:12 1250
   751  4.2192e-03  3.2346e-03  2.1382e-03  2.5453e+03  4.2140e-03  0:01:45 1249
   752  4.1736e-03  3.2998e-03  2.1696e-03  2.5848e+03  4.1684e-03  0:01:24 1248
   753  4.1561e-03  3.3615e-03  2.1817e-03  2.6451e+03  4.1511e-03  0:01:07 1247
   754  4.1491e-03  3.4072e-03  2.1693e-03  2.7014e+03  4.1442e-03  0:00:54 1246
   755  4.1682e-03  3.3938e-03  2.1411e-03  2.7372e+03  4.1634e-03  0:00:43 1245
   756  4.1675e-03  3.3524e-03  2.1096e-03  2.7176e+03  4.1630e-03  0:00:34 1244
   757  4.0850e-03  3.3070e-03  2.0822e-03  2.6704e+03  4.0807e-03  0:00:27 1243
   758  4.0832e-03  3.2542e-03  2.0530e-03  2.6069e+03  4.0791e-03  0:00:22 1242
   759  4.1046e-03  3.2109e-03  2.0297e-03  2.5460e+03  4.1006e-03  0:00:18 1241

  iter  continuity  x-velocity  y-velocity  z-velocity      energy     time/iter
   760  4.0700e-03  3.1951e-03  2.0155e-03  2.4881e+03  4.0662e-03  0:00:14 1240
   761  3.9552e-03  3.1685e-03  2.0118e-03  2.4092e+03  3.9514e-03  0:00:11 1239
   762  3.9469e-03  3.1768e-03  2.0037e-03  2.3795e+03  3.9432e-03  0:00:09 1238
   763  3.9571e-03  3.2019e-03  1.9940e-03  2.3311e+03  3.9535e-03  0:00:07 1237
   764  3.8254e-03  3.2330e-03  2.0037e-03  2.2672e+03  3.8220e-03  0:04:13 1236
   765  3.6989e-03  3.2714e-03  2.0104e-03  2.2028e+03  3.6956e-03  0:03:22 1235
   766  3.6612e-03  3.2769e-03  1.9593e-03  2.1658e+03  3.6580e-03  0:02:42 1234
   767  3.5854e-03  3.2616e-03  1.9336e-03  2.1430e+03  3.5822e-03  0:02:09 1233
   768  3.5103e-03  3.2275e-03  1.9021e-03  2.1053e+03  3.5073e-03  0:01:43 1232
   769  3.5009e-03  3.2217e-03  1.8709e-03  2.1008e+03  3.4980e-03  0:01:23 1231
   770  3.5271e-03  3.1948e-03  1.8295e-03  2.1101e+03  3.5242e-03  0:01:06 1230

  iter  continuity  x-velocity  y-velocity  z-velocity      energy     time/iter
   771  3.6013e-03  3.1147e-03  1.7858e-03  2.1312e+03  3.5985e-03  0:00:53 1229
   772  3.7292e-03  3.1036e-03  1.7488e-03  2.1865e+03  3.7264e-03  0:00:42 1228
   773  3.8009e-03  3.1155e-03  1.7365e-03  2.2214e+03  3.7980e-03  0:00:34 1227
   774  3.9436e-03  3.0760e-03  1.7106e-03  2.3197e+03  3.9407e-03  0:00:27 1226
   775  4.1503e-03  3.0413e-03  1.6582e-03  2.3713e+03  4.1473e-03  0:00:22 1225
   776  4.3601e-03  3.0067e-03  1.6339e-03  2.4364e+03  4.3571e-03  0:00:17 1224
   777  4.5007e-03  3.0231e-03  1.6330e-03  2.4960e+03  4.4976e-03  0:00:14 1223
   778  4.6720e-03  3.0584e-03  1.6388e-03  2.5644e+03  4.6688e-03  0:00:11 1222
   779  4.8492e-03  3.0890e-03  1.6469e-03  2.6129e+03  4.8459e-03  0:00:09 1221
   780  4.8958e-03  3.1442e-03  1.6774e-03  2.6283e+03  4.8924e-03  0:04:11 1220
   781  4.8454e-03  3.2355e-03  1.7363e-03  2.6584e+03  4.8420e-03  0:03:21 1219

  iter  continuity  x-velocity  y-velocity  z-velocity      energy     time/iter
   782  4.8143e-03  3.3407e-03  1.8164e-03  2.7129e+03  4.8109e-03  0:02:40 1218
   783  4.7216e-03  3.4679e-03  1.9055e-03  2.8142e+03  4.7181e-03  0:02:08 1217
   784  4.5996e-03  3.5943e-03  1.9842e-03  2.9043e+03  4.5962e-03  0:01:42 1216
   785  4.5565e-03  3.7113e-03  2.0302e-03  2.9937e+03  4.5530e-03  0:01:22 1215
   786  4.4781e-03  3.7839e-03  2.0263e-03  3.0902e+03  4.4748e-03  0:01:05 1214
   787  4.4519e-03  3.7669e-03  1.9911e-03  3.1451e+03  4.4486e-03  0:00:52 1213
   788  4.4970e-03  3.7164e-03  1.9296e-03  3.1454e+03  4.4939e-03  0:00:42 1212
   789  4.4733e-03  3.6465e-03  1.8800e-03  3.1199e+03  4.4703e-03  0:00:33 1211
   790  4.4268e-03  3.5856e-03  1.8517e-03  3.0499e+03  4.4239e-03  0:00:27 1210
   791  4.4586e-03  3.5191e-03  1.8254e-03  2.9800e+03  4.4558e-03  0:00:21 1209
   792  4.5181e-03  3.4838e-03  1.8212e-03  2.8959e+03  4.5152e-03  0:00:17 1208

  iter  continuity  x-velocity  y-velocity  z-velocity      energy     time/iter
   793  4.4318e-03  3.4504e-03  1.8453e-03  2.8104e+03  4.4289e-03  0:00:14 1207
   794  4.3744e-03  3.4698e-03  1.8755e-03  2.7301e+03  4.3715e-03  0:00:11 1206
   795  4.4188e-03  3.5489e-03  1.8951e-03  2.6646e+03  4.4158e-03  0:00:09 1205
   796  4.3763e-03  3.6508e-03  1.9463e-03  2.6037e+03  4.3732e-03  0:00:07 1204
   797  4.2270e-03  3.7034e-03  1.9565e-03  2.5213e+03  4.2240e-03  0:00:06 1203
   798  4.1373e-03  3.7126e-03  1.9373e-03  2.4596e+03  4.1344e-03  0:04:05 1202
   799  4.0045e-03  3.6836e-03  1.8905e-03  2.4179e+03  4.0017e-03  0:03:16 1201
   800  3.8879e-03  3.6423e-03  1.8586e-03  2.4020e+03  3.8852e-03  0:02:36 1200
   801  3.8503e-03  3.6001e-03  1.8266e-03  2.4320e+03  3.8477e-03  0:02:05 1199
   802  3.8606e-03  3.5183e-03  1.7812e-03  2.4944e+03  3.8580e-03  0:01:40 1198
   803  4.0231e-03  3.4400e-03  1.7358e-03  2.5963e+03  4.0205e-03  0:01:20 1197

  iter  continuity  x-velocity  y-velocity  z-velocity      energy     time/iter
   804  4.2791e-03  3.4219e-03  1.7045e-03  2.7259e+03  4.2763e-03  0:01:04 1196
   805  4.4824e-03  3.3617e-03  1.6894e-03  2.8321e+03  4.4795e-03  0:00:51 1195
   806  4.7043e-03  3.3069e-03  1.7087e-03  2.9437e+03  4.7014e-03  0:00:41 1194
   807  4.9946e-03  3.2644e-03  1.6661e-03  3.0223e+03  4.9915e-03  0:00:33 1193
   808  5.2321e-03  3.2499e-03  1.6777e-03  3.0808e+03  5.2290e-03  0:00:26 1192
   809  5.3615e-03  3.2788e-03  1.7181e-03  3.1229e+03  5.3583e-03  0:00:21 1191
[...]
  1791  7.5545e-04  3.5892e-03  4.3830e-03  4.2950e+02  6.7348e-04  0:00:01  209
  1792  7.5582e-04  3.6079e-03  4.3716e-03  4.3186e+02  6.7520e-04  0:00:01  208
  1793  7.5482e-04  3.6258e-03  4.3582e-03  4.3365e+02  6.7544e-04  0:00:42  207

  iter  continuity  x-velocity  y-velocity  z-velocity      energy     time/iter
  1794  7.5604e-04  3.6426e-03  4.3427e-03  4.3442e+02  6.7819e-04  0:00:33  206
  1795  7.5048e-04  3.6580e-03  4.3250e-03  4.3338e+02  6.7341e-04  0:00:27  205
  1796  7.4167e-04  3.6787e-03  4.3027e-03  4.3665e+02  6.6502e-04  0:00:21  204
  1797  7.3199e-04  3.7009e-03  4.2779e-03  4.4281e+02  6.5569e-04  0:00:17  203
  1798  7.3127e-04  3.7181e-03  4.2527e-03  4.4939e+02  6.5643e-04  0:00:13  202
  1799  7.4306e-04  3.7306e-03  4.2263e-03  4.5507e+02  6.7105e-04  0:00:11  201
  1800  7.5741e-04  3.7399e-03  4.1982e-03  4.5588e+02  6.8839e-04  0:00:09  200
  1801  7.5682e-04  3.7464e-03  4.1681e-03  4.4997e+02  6.8923e-04  0:00:07  199
  1802  7.5164e-04  3.7519e-03  4.1362e-03  4.3932e+02  6.8504e-04  0:00:05  198
  1803  7.6108e-04  3.7568e-03  4.1025e-03  4.3760e+02  6.9684e-04  0:00:04  197
  1804  7.7808e-04  3.7608e-03  4.0671e-03  4.4794e+02  7.1678e-04  0:00:03  196

  iter  continuity  x-velocity  y-velocity  z-velocity      energy     time/iter
  1805  7.9854e-04  3.7636e-03  4.0300e-03  4.6148e+02  7.4027e-04  0:00:03  195
  1806  8.2138e-04  3.7651e-03  3.9915e-03  4.8008e+02  7.6614e-04  0:00:02  194
  1807  8.4495e-04  3.7649e-03  3.9516e-03  4.9624e+02  7.9259e-04  0:00:02  193
  1808  8.6397e-04  3.7643e-03  3.9104e-03  5.0493e+02  8.1402e-04  0:00:01  192
  1809  8.7320e-04  3.7605e-03  3.8679e-03  5.1471e+02  8.2498e-04  0:00:01  191
  1810  8.8554e-04  3.7553e-03  3.8245e-03  5.3465e+02  8.3915e-04  0:00:39  190
  1811  8.8571e-04  3.7507e-03  3.7801e-03  5.5105e+02  8.4047e-04  0:00:31  189
  1812  9.0398e-04  3.7438e-03  3.7347e-03  5.6482e+02  8.6080e-04  0:00:25  188
  1813  9.4805e-04  3.7354e-03  3.6884e-03  5.8334e+02  9.0801e-04  0:00:20  187
  1814  9.7990e-04  3.7263e-03  3.6413e-03  6.0277e+02  9.4221e-04  0:00:16  186
  1815  9.9454e-04  3.7132e-03  3.5937e-03  6.0116e+02  9.5841e-04  0:00:12  185

  iter  continuity  x-velocity  y-velocity  z-velocity      energy     time/iter
  1816  9.8453e-04  3.7007e-03  3.5456e-03  5.8498e+02  9.4903e-04  0:00:10  184
  1817  1.0120e-03  3.6881e-03  3.4982e-03  5.8835e+02  9.7848e-04  0:00:08  183
  1818  1.0449e-03  3.6754e-03  3.4514e-03  6.2067e+02  1.0134e-03  0:00:06  182
  1819  1.0728e-03  3.6635e-03  3.4042e-03  6.5625e+02  1.0430e-03  0:00:05  181
  1820  1.1205e-03  3.6508e-03  3.3565e-03  6.8817e+02  1.0928e-03  0:00:04  180
  1821  1.1404e-03  3.6383e-03  3.3091e-03  7.0785e+02  1.1141e-03  0:00:03  179
  1822  1.1645e-03  3.6269e-03  3.2620e-03  7.1412e+02  1.1395e-03  0:00:03  178
  1823  1.1794e-03  3.6092e-03  3.2151e-03  7.1941e+02  1.1555e-03  0:00:02  177
  1824  1.1923e-03  3.5926e-03  3.1689e-03  7.3455e+02  1.1695e-03  0:00:02  176
  1825  1.1988e-03  3.5798e-03  3.1231e-03  7.4463e+02  1.1768e-03  0:00:01  175
  1826  1.2309e-03  3.5612e-03  3.0782e-03  7.6517e+02  1.2103e-03  0:00:01  174

  iter  continuity  x-velocity  y-velocity  z-velocity      energy     time/iter
  1827  1.2790e-03  3.5465e-03  3.0342e-03  8.0122e+02  1.2599e-03  0:00:35  173
  1828  1.3666e-03  3.5377e-03  2.9906e-03  8.3907e+02  1.3494e-03  0:00:28  172
  1829  1.4048e-03  3.5219e-03  2.9479e-03  8.4796e+02  1.3888e-03  0:00:22  171
  1830  1.4005e-03  3.5126e-03  2.9031e-03  8.2731e+02  1.3851e-03  0:00:18  170
  1831  1.4231e-03  3.4990e-03  2.8603e-03  8.1564e+02  1.4086e-03  0:00:14  169
  1832  1.4381e-03  3.4842e-03  2.8201e-03  8.3009e+02  1.4244e-03  0:00:11  168
  1833  1.4738e-03  3.4757e-03  2.7800e-03  8.7941e+02  1.4610e-03  0:00:09  167
  1834  1.5633e-03  3.4660e-03  2.7400e-03  9.4295e+02  1.5518e-03  0:00:07  166
  1835  1.6023e-03  3.4658e-03  2.7004e-03  9.7907e+02  1.5916e-03  0:00:06  165
  1836  1.6304e-03  3.4638e-03  2.6612e-03  9.8342e+02  1.6204e-03  0:00:05  164
  1837  1.6764e-03  3.4514e-03  2.6222e-03  9.7824e+02  1.6671e-03  0:00:04  163

  iter  continuity  x-velocity  y-velocity  z-velocity      energy     time/iter
  1838  1.7105e-03  3.4471e-03  2.5837e-03  9.8093e+02  1.7020e-03  0:00:03  162
  1839  1.7268e-03  3.4480e-03  2.5456e-03  9.9411e+02  1.7188e-03  0:00:02  161
  1840  1.7923e-03  3.4324e-03  2.5061e-03  1.0264e+03  1.7851e-03  0:00:02  160
  1841  1.8743e-03  3.4218e-03  2.4689e-03  1.0755e+03  1.8678e-03  0:00:01  159
  1842  2.0036e-03  3.4385e-03  2.4345e-03  1.1487e+03  1.9978e-03  0:00:01  158
  1843  2.1243e-03  3.4552e-03  2.3987e-03  1.1834e+03  2.1192e-03  0:00:01  157
  1844  2.1463e-03  3.4684e-03  2.3571e-03  1.1786e+03  2.1416e-03  0:00:01  156
  1845  2.1477e-03  3.4614e-03  2.3160e-03  1.1743e+03  2.1434e-03  0:00:32  155
  1846  2.1546e-03  3.4589e-03  2.2794e-03  1.1970e+03  2.1506e-03  0:00:25  154
  1847  2.2062e-03  3.4670e-03  2.2420e-03  1.2789e+03  2.2026e-03  0:00:20  153
  1848  2.3123e-03  3.4739e-03  2.2049e-03  1.3778e+03  2.3091e-03  0:00:16  152

  iter  continuity  x-velocity  y-velocity  z-velocity      energy     time/iter
  1849  2.3992e-03  3.4970e-03  2.1670e-03  1.4491e+03  2.3963e-03  0:00:13  151
  1850  2.4770e-03  3.5101e-03  2.1272e-03  1.4663e+03  2.4744e-03  0:00:10  150
  1851  2.5619e-03  3.5181e-03  2.0824e-03  1.4780e+03  2.5595e-03  0:00:08  149
  1852  2.5987e-03  3.5189e-03  2.0477e-03  1.4699e+03  2.5966e-03  0:00:06  148
  1853  2.5972e-03  3.5362e-03  2.0165e-03  1.4931e+03  2.5952e-03  0:00:05  147
  1854  2.6718e-03  3.5405e-03  1.9762e-03  1.5291e+03  2.6700e-03  0:00:04  146
  1855  2.7607e-03  3.5208e-03  1.9308e-03  1.5592e+03  2.7590e-03  0:00:03  145
  1856  2.7994e-03  3.5170e-03  1.8946e-03  1.6016e+03  2.7979e-03  0:00:03  144
  1857  2.9225e-03  3.5478e-03  1.8650e-03  1.6337e+03  2.9211e-03  0:00:02  143
  1858  3.0725e-03  3.6047e-03  1.8255e-03  1.6585e+03  3.0714e-03  0:00:02  142
  1859  3.1217e-03  3.6159e-03  1.7891e-03  1.6857e+03  3.1207e-03  0:00:01  141

  iter  continuity  x-velocity  y-velocity  z-velocity      energy     time/iter
  1860  3.1315e-03  3.5943e-03  1.7511e-03  1.6930e+03  3.1306e-03  0:00:01  140
  1861  3.1059e-03  3.5818e-03  1.7120e-03  1.7383e+03  3.1050e-03  0:00:01  139
  1862  3.1221e-03  3.5878e-03  1.6755e-03  1.8046e+03  3.1213e-03  0:00:01  138
  1863  3.0495e-03  3.6025e-03  1.6406e-03  1.8591e+03  3.0488e-03  0:00:28  137
  1864  3.0091e-03  3.6202e-03  1.6057e-03  1.8903e+03  3.0084e-03  0:00:22  136
  1865  3.0714e-03  3.6258e-03  1.5627e-03  1.9167e+03  3.0707e-03  0:00:18  135
  1866  3.1733e-03  3.6399e-03  1.5064e-03  1.8940e+03  3.1727e-03  0:00:14  134
  1867  3.2092e-03  3.6213e-03  1.4718e-03  1.8800e+03  3.2086e-03  0:00:11  133
  1868  3.2156e-03  3.6048e-03  1.4555e-03  1.8914e+03  3.2150e-03  0:00:09  132
  1869  3.2692e-03  3.6064e-03  1.4357e-03  1.9399e+03  3.2686e-03  0:00:07  131
  1870  3.3178e-03  3.5899e-03  1.4003e-03  1.9702e+03  3.3172e-03  0:00:06  130

  iter  continuity  x-velocity  y-velocity  z-velocity      energy     time/iter
  1871  3.3068e-03  3.5693e-03  1.3688e-03  1.9701e+03  3.3061e-03  0:00:04  129
  1872  3.3704e-03  3.5603e-03  1.3471e-03  1.9349e+03  3.3697e-03  0:00:03  128
  1873  3.4759e-03  3.5950e-03  1.3256e-03  1.9245e+03  3.4753e-03  0:00:03  127
  1874  3.4781e-03  3.6116e-03  1.3212e-03  1.9607e+03  3.4775e-03  0:00:02  126
  1875  3.5318e-03  3.5965e-03  1.3044e-03  2.0089e+03  3.5313e-03  0:00:02  125
  1876  3.5925e-03  3.5795e-03  1.2931e-03  2.1025e+03  3.5920e-03  0:00:01  124
  1877  3.6094e-03  3.5703e-03  1.2881e-03  2.1486e+03  3.6089e-03  0:00:01  123
  1878  3.4820e-03  3.5851e-03  1.2885e-03  2.1192e+03  3.4815e-03  0:00:25  122
  1879  3.2982e-03  3.6145e-03  1.2862e-03  2.0583e+03  3.2976e-03  0:00:20  121
  1880  3.2431e-03  3.6009e-03  1.2816e-03  2.0038e+03  3.2425e-03  0:00:16  120
  1881  3.2937e-03  3.6093e-03  1.2393e-03  1.9853e+03  3.2931e-03  0:00:13  119

  iter  continuity  x-velocity  y-velocity  z-velocity      energy     time/iter
  1882  3.3655e-03  3.6307e-03  1.2228e-03  1.9860e+03  3.3649e-03  0:00:10  118
  1883  3.4284e-03  3.5916e-03  1.2147e-03  2.0057e+03  3.4278e-03  0:00:08  117
  1884  3.4996e-03  3.5601e-03  1.2334e-03  2.0424e+03  3.4989e-03  0:00:06  116
  1885  3.5710e-03  3.5799e-03  1.2557e-03  2.1062e+03  3.5702e-03  0:00:05  115
  1886  3.5409e-03  3.5947e-03  1.2668e-03  2.1407e+03  3.5401e-03  0:00:04  114
  1887  3.5780e-03  3.5493e-03  1.2535e-03  2.1097e+03  3.5771e-03  0:00:03  113
  1888  3.6483e-03  3.5681e-03  1.2506e-03  2.0674e+03  3.6474e-03  0:00:02  112
  1889  3.6538e-03  3.5931e-03  1.2755e-03  2.0536e+03  3.6529e-03  0:00:02  111
  1890  3.7346e-03  3.6021e-03  1.2896e-03  2.0784e+03  3.7338e-03  0:00:02  110
  1891  3.8228e-03  3.5902e-03  1.3048e-03  2.1999e+03  3.8220e-03  0:00:01  109
  1892  3.8234e-03  3.5600e-03  1.3168e-03  2.2922e+03  3.8225e-03  0:00:01  108

  iter  continuity  x-velocity  y-velocity  z-velocity      energy     time/iter
  1893  3.7222e-03  3.5884e-03  1.3633e-03  2.3198e+03  3.7211e-03  0:00:01  107
  1894  3.6014e-03  3.6307e-03  1.3596e-03  2.2945e+03  3.6002e-03  0:00:01  106
  1895  3.5921e-03  3.6657e-03  1.3655e-03  2.2535e+03  3.5909e-03  0:00:00  105
  1896  3.6180e-03  3.6683e-03  1.3647e-03  2.2266e+03  3.6168e-03  0:00:21  104
  1897  3.6936e-03  3.6697e-03  1.3982e-03  2.2154e+03  3.6923e-03  0:00:17  103
  1898  3.6876e-03  3.6858e-03  1.4252e-03  2.2447e+03  3.6862e-03  0:00:13  102
  1899  3.7208e-03  3.6661e-03  1.4440e-03  2.2751e+03  3.7193e-03  0:00:11  101
  1900  3.7728e-03  3.6233e-03  1.4853e-03  2.3107e+03  3.7712e-03  0:00:08  100
  1901  3.7559e-03  3.6866e-03  1.5397e-03  2.3719e+03  3.7542e-03  0:00:07   99
  1902  3.8497e-03  3.7229e-03  1.5576e-03  2.4108e+03  3.8480e-03  0:00:05   98
  1903  3.9916e-03  3.7370e-03  1.5690e-03  2.4058e+03  3.9900e-03  0:00:04   97

  iter  continuity  x-velocity  y-velocity  z-velocity      energy     time/iter
  1904  3.9958e-03  3.7374e-03  1.6020e-03  2.3469e+03  3.9942e-03  0:00:03   96
  1905  4.0352e-03  3.7401e-03  1.6372e-03  2.2947e+03  4.0337e-03  0:00:03   95
  1906  4.0622e-03  3.7542e-03  1.6403e-03  2.2895e+03  4.0606e-03  0:00:02   94
  1907  4.0139e-03  3.7440e-03  1.6641e-03  2.3440e+03  4.0123e-03  0:00:02   93
  1908  3.9009e-03  3.7342e-03  1.6856e-03  2.3916e+03  3.8991e-03  0:00:01   92
  1909  3.7862e-03  3.7570e-03  1.6761e-03  2.4379e+03  3.7843e-03  0:00:01   91
  1910  3.7970e-03  3.7777e-03  1.6691e-03  2.4495e+03  3.7950e-03  0:00:01   90
  1911  3.8357e-03  3.7967e-03  1.6583e-03  2.4313e+03  3.8337e-03  0:00:01   89
  1912  3.9148e-03  3.7784e-03  1.6705e-03  2.3783e+03  3.9127e-03  0:00:01   88
  1913  3.8467e-03  3.7263e-03  1.7031e-03  2.3430e+03  3.8444e-03  0:00:00   87
  1914  3.7920e-03  3.7278e-03  1.7359e-03  2.3426e+03  3.7895e-03  0:00:18   86

  iter  continuity  x-velocity  y-velocity  z-velocity      energy     time/iter
  1915  3.7720e-03  3.7320e-03  1.7594e-03  2.3706e+03  3.7693e-03  0:00:14   85
  1916  3.6795e-03  3.7140e-03  1.7832e-03  2.3929e+03  3.6766e-03  0:00:11   84
  1917  3.7538e-03  3.7312e-03  1.8157e-03  2.4097e+03  3.7509e-03  0:00:09   83
  1918  3.9192e-03  3.7773e-03  1.8340e-03  2.4208e+03  3.9163e-03  0:00:07   82
  1919  3.9470e-03  3.7821e-03  1.8657e-03  2.3984e+03  3.9441e-03  0:00:05   81
  1920  3.9743e-03  3.7575e-03  1.9039e-03  2.3617e+03  3.9714e-03  0:00:04   80
  1921  4.0281e-03  3.7574e-03  1.9416e-03  2.3282e+03  4.0253e-03  0:00:03   79
  1922  3.9638e-03  3.7778e-03  1.9917e-03  2.2927e+03  3.9608e-03  0:00:03   78
  1923  3.8161e-03  3.8123e-03  2.0236e-03  2.2483e+03  3.8129e-03  0:00:02   77
  1924  3.5984e-03  3.8214e-03  2.0172e-03  2.2073e+03  3.5949e-03  0:00:02   76
  1925  3.4615e-03  3.8218e-03  2.0125e-03  2.1708e+03  3.4579e-03  0:00:01   75

  iter  continuity  x-velocity  y-velocity  z-velocity      energy     time/iter
  1926  3.4597e-03  3.8198e-03  2.0101e-03  2.1726e+03  3.4561e-03  0:00:01   74
  1927  3.5239e-03  3.8319e-03  2.0026e-03  2.1621e+03  3.5202e-03  0:00:01   73
  1928  3.5168e-03  3.8057e-03  2.0048e-03  2.1411e+03  3.5130e-03  0:00:01   72
  1929  3.4546e-03  3.7314e-03  2.0254e-03  2.0962e+03  3.4506e-03  0:00:01   71
  1930  3.3655e-03  3.7066e-03  2.0464e-03  2.0925e+03  3.3612e-03  0:00:00   70
  1931  3.3513e-03  3.7127e-03  2.0601e-03  2.1410e+03  3.3468e-03  0:00:14   69
  1932  3.4478e-03  3.6449e-03  2.0682e-03  2.1606e+03  3.4433e-03  0:00:11   68
  1933  3.5396e-03  3.6480e-03  2.0817e-03  2.1428e+03  3.5352e-03  0:00:09   67
  1934  3.5529e-03  3.6567e-03  2.1061e-03  2.0885e+03  3.5484e-03  0:00:07   66
  1935  3.5950e-03  3.6427e-03  2.1265e-03  2.0142e+03  3.5905e-03  0:00:05   65
  1936  3.5724e-03  3.6220e-03  2.1561e-03  1.9531e+03  3.5678e-03  0:00:04   64

  iter  continuity  x-velocity  y-velocity  z-velocity      energy     time/iter
  1937  3.4363e-03  3.6079e-03  2.1953e-03  1.9060e+03  3.4315e-03  0:00:03   63
  1938  3.2675e-03  3.6363e-03  2.2235e-03  1.8649e+03  3.2623e-03  0:00:03   62
  1939  3.1100e-03  3.6836e-03  2.2395e-03  1.8321e+03  3.1044e-03  0:00:02   61
  1940  3.0460e-03  3.7017e-03  2.2439e-03  1.8077e+03  3.0403e-03  0:00:02   60
  1941  3.0893e-03  3.6946e-03  2.2471e-03  1.7957e+03  3.0836e-03  0:00:01   59
  1942  3.1249e-03  3.6639e-03  2.2506e-03  1.8007e+03  3.1191e-03  0:00:01   58
  1943  3.0839e-03  3.6361e-03  2.2579e-03  1.8032e+03  3.0779e-03  0:00:01   57
  1944  2.9938e-03  3.5924e-03  2.2741e-03  1.7889e+03  2.9874e-03  0:00:01   56
  1945  2.9102e-03  3.5733e-03  2.2955e-03  1.7650e+03  2.9034e-03  0:00:00   55
  1946  2.9987e-03  3.5804e-03  2.3096e-03  1.7714e+03  2.9920e-03  0:00:00   54
  1947  3.1126e-03  3.5818e-03  2.3152e-03  1.7924e+03  3.1060e-03  0:00:00   53

  iter  continuity  x-velocity  y-velocity  z-velocity      energy     time/iter
  1948  3.1354e-03  3.5559e-03  2.3244e-03  1.7987e+03  3.1288e-03  0:00:00   52
  1949  3.2054e-03  3.5388e-03  2.3380e-03  1.7753e+03  3.1988e-03  0:00:10   51
  1950  3.2634e-03  3.5438e-03  2.3523e-03  1.7401e+03  3.2568e-03  0:00:08   50
  1951  3.1551e-03  3.5342e-03  2.3777e-03  1.6976e+03  3.1482e-03  0:00:06   49
  1952  2.9987e-03  3.5295e-03  2.4027e-03  1.6853e+03  2.9913e-03  0:00:05   48
  1953  2.8637e-03  3.5431e-03  2.4132e-03  1.7026e+03  2.8557e-03  0:00:04   47
  1954  2.8763e-03  3.5803e-03  2.4352e-03  1.7495e+03  2.8683e-03  0:00:03   46
  1955  2.9932e-03  3.5965e-03  2.4431e-03  1.7792e+03  2.9854e-03  0:00:02   45
  1956  3.0686e-03  3.5946e-03  2.4482e-03  1.8062e+03  3.0609e-03  0:00:02   44
  1957  3.0258e-03  3.5747e-03  2.4675e-03  1.8147e+03  3.0178e-03  0:00:01   43
  1958  2.8894e-03  3.5577e-03  2.4958e-03  1.8200e+03  2.8807e-03  0:00:01   42

  iter  continuity  x-velocity  y-velocity  z-velocity      energy     time/iter
  1959  2.7782e-03  3.5721e-03  2.5205e-03  1.8084e+03  2.7689e-03  0:00:01   41
  1960  2.7520e-03  3.5633e-03  2.5433e-03  1.7651e+03  2.7424e-03  0:00:01   40
  1961  2.8055e-03  3.5671e-03  2.5644e-03  1.7196e+03  2.7959e-03  0:00:01   39
  1962  2.8606e-03  3.5855e-03  2.5810e-03  1.7008e+03  2.8511e-03  0:00:00   38
  1963  2.9558e-03  3.5797e-03  2.5969e-03  1.7002e+03  2.9465e-03  0:00:00   37
  1964  3.0312e-03  3.5523e-03  2.6128e-03  1.6858e+03  3.0221e-03  0:00:07   36
  1965  2.9688e-03  3.5390e-03  2.6380e-03  1.6333e+03  2.9594e-03  0:00:06   35
  1966  2.7946e-03  3.5362e-03  2.6611e-03  1.5680e+03  2.7844e-03  0:00:05   34
  1967  2.6038e-03  3.5525e-03  2.6804e-03  1.5243e+03  2.5928e-03  0:00:04   33
  1968  2.4788e-03  3.5537e-03  2.6936e-03  1.5028e+03  2.4671e-03  0:00:03   32
  1969  2.5581e-03  3.5639e-03  2.7026e-03  1.5130e+03  2.5467e-03  0:00:02   31

  iter  continuity  x-velocity  y-velocity  z-velocity      energy     time/iter
  1970  2.6887e-03  3.5562e-03  2.7095e-03  1.5504e+03  2.6778e-03  0:00:02   30
  1971  2.7158e-03  3.5362e-03  2.7240e-03  1.5739e+03  2.7049e-03  0:00:01   29
  1972  2.6200e-03  3.5111e-03  2.7532e-03  1.5686e+03  2.6085e-03  0:00:01   28
  1973  2.4990e-03  3.4831e-03  2.7844e-03  1.5436e+03  2.4866e-03  0:00:01   27
  1974  2.4272e-03  3.4672e-03  2.8094e-03  1.5208e+03  2.4143e-03  0:00:01   26
  1975  2.4280e-03  3.4627e-03  2.8338e-03  1.4974e+03  2.4151e-03  0:00:00   25
  1976  2.4346e-03  3.4526e-03  2.8605e-03  1.4736e+03  2.4216e-03  0:00:00   24
  1977  2.4944e-03  3.4477e-03  2.8833e-03  1.4638e+03  2.4817e-03  0:00:00   23
  1978  2.5230e-03  3.4469e-03  2.9056e-03  1.4466e+03  2.5105e-03  0:00:00   22
  1979  2.4664e-03  3.4477e-03  2.9308e-03  1.4108e+03  2.4535e-03  0:00:00   21
  1980  2.3519e-03  3.4502e-03  2.9544e-03  1.3716e+03  2.3384e-03  0:00:04   20

  iter  continuity  x-velocity  y-velocity  z-velocity      energy     time/iter
  1981  2.2018e-03  3.4659e-03  2.9771e-03  1.3371e+03  2.1873e-03  0:00:03   19
  1982  2.1824e-03  3.4819e-03  2.9932e-03  1.3146e+03  2.1679e-03  0:00:02   18
  1983  2.2840e-03  3.4909e-03  3.0029e-03  1.3345e+03  2.2702e-03  0:00:02   17
  1984  2.3839e-03  3.4896e-03  3.0142e-03  1.3682e+03  2.3706e-03  0:00:01   16
  1985  2.4078e-03  3.4828e-03  3.0278e-03  1.3946e+03  2.3946e-03  0:00:01   15
  1986  2.3433e-03  3.4758e-03  3.0439e-03  1.4007e+03  2.3296e-03  0:00:01   14
  1987  2.2612e-03  3.4755e-03  3.0606e-03  1.3964e+03  2.2469e-03  0:00:01   13
  1988  2.1825e-03  3.4696e-03  3.0747e-03  1.4015e+03  2.1676e-03  0:00:00   12
  1989  2.1492e-03  3.4704e-03  3.0842e-03  1.3971e+03  2.1340e-03  0:00:00   11
  1990  2.1461e-03  3.4703e-03  3.0919e-03  1.3993e+03  2.1308e-03  0:00:00   10
  1991  2.1913e-03  3.4614e-03  3.1001e-03  1.3990e+03  2.1764e-03  0:00:00    9

  iter  continuity  x-velocity  y-velocity  z-velocity      energy     time/iter
  1992  2.2123e-03  3.4609e-03  3.1079e-03  1.3781e+03  2.1975e-03  0:00:00    8
  1993  2.2173e-03  3.4652e-03  3.1141e-03  1.3539e+03  2.2026e-03  0:00:00    7
  1994  2.1295e-03  3.4814e-03  3.1178e-03  1.3201e+03  2.1141e-03  0:00:00    6
  1995  1.9697e-03  3.4971e-03  3.1159e-03  1.2789e+03  1.9530e-03  0:00:00    5
  1996  1.9121e-03  3.5025e-03  3.1134e-03  1.2447e+03  1.8949e-03  0:00:00    4
  1997  1.9314e-03  3.5023e-03  3.1062e-03  1.2348e+03  1.9143e-03  0:00:00    3
  1998  1.9719e-03  3.4929e-03  3.0924e-03  1.2341e+03  1.9550e-03  0:00:00    2
  1999  1.9821e-03  3.4754e-03  3.0802e-03  1.2304e+03  1.9652e-03  0:00:00    1
  2000  1.9344e-03  3.4531e-03  3.0696e-03  1.2178e+03  1.9170e-03  0:00:00    0

> 
adjoint/                parallel/               server/
define/                 parametric-study/       solve/
display/                plot/                   surface/
exit                    preferences/            turbo-workflow/
file/                   print-license-usage     views/
mesh/                   report/

> /file/write-case-data project1
Fast-loading "C:\PROGRA~1\ANSYSI~1\v231\fluent\fluent23.1.0\\addons\afd\lib\hdfio.bin"
Done.

Writing to Engs-30669:"C:\Users\kebl7595\Desktop\CFD\Runs\Actual Data\24 degree\project1.cas.h5" in NODE0 mode and compression level 1 ...
       12996 cells,     1 zone  ...
       43722 faces,     8 zones ...
       17864 nodes,     1 zone  ...
  Done.
Done.

Writing to Engs-30669:"C:\Users\kebl7595\Desktop\CFD\Runs\Actual Data\24 degree\project1.dat.h5" in NODE0 mode and compression level 1 ...
  Writing results.
Done.

> /file/export/ascii "./surface.dat" wing te () no pressure mach-number quit no

Writing "./surface.dat"...

Writing information to ascii file ...
Done.


> /plot/plot y "data.dat" no n n pressure-coefficient no n x-coordinate wing ()

> /report/forces/wall-forces y -0.40674 0.91355 0 y "Force"

> /exit

Posting ANSYS Product Improvement Program performance data 
Done.
Auto-Transcript Stop Time:  15:15:40, 20 May 2024 GMT Daylight Time 
Total Transcript Time: 2 Minute 11 Second.
