Auto-Transcript Start Time:  13:42:35, 20 May 2024 GMT Daylight Time 
Current Directory: "C:\Users\kebl7595\Desktop\CFD\Runs\Actual Data\0 degree smaller domain"

              Welcome to ANSYS Fluent 2023 R1

              Copyright 1987-2023 ANSYS, Inc. All Rights Reserved.
              Unauthorized use, distribution or duplication is prohibited.
              This product is subject to U.S. laws governing export and re-export.
              For full Legal Notice, see documentation.

Build Time: Nov 28 2022 09:52:02 EST  Build Id: 10208  
 
Connected License Server List:	1055@ansyslic.eng.ox.ac.uk

*********************************************
Info: Your license enables 4-way parallel execution.
For faster simulations, please start the application with the appropriate parallel options.
*********************************************


     --------------------------------------------------------------
     This is an academic version of ANSYS FLUENT. Usage of this product
     license is limited to the terms and conditions specified in your ANSYS
     license form, additional terms section.
     --------------------------------------------------------------
Host spawning Node 0 on machine "Engs-30669" (win64).

------------------------------------------------------------------------------------
ID    Hostname    Core  O.S.         PID    Vendor                                 
------------------------------------------------------------------------------------
n0    Engs-30669  1/32  Windows-x64  44816  13th Gen Intel(R) Core(TM) i9-13900    
host  Engs-30669        Windows-x64  41072  13th Gen Intel(R) Core(TM) i9-13900    

MPI Option Selected: intel
------------------------------------------------------------------------------------

Cleanup script file is C:\\Users\\kebl7595\\Desktop\\CFD\\Runs\\Actual Data\\0 degree smaller domain\\cleanup-fluent-Engs-30669-41072.bat
QA Service Message :
QA Services Agreement Enabled. This application is included in the scope of an ANSYS QA Services Agreement.
Posting ANSYS Product Improvement Program startup data
Done.

Reading journal file C:/Users/kebl7595/Desktop/CFD/Runs/Actual Data/0 degree smaller domain/project1.jou...

> /file/set-batch-options no no no 

> 
define/                 parametric-study/       solve/
display/                plot/                   surface/
exit                    preferences/            switch-to-meshing-mode
file/                   print-license-usage     turbo-workflow/
mesh/                   report/                 views/
parallel/               server/

> /file/import/cgns/mesh  "./project1.cgns"
Engs-30669 has other FLUENT parallel processes running.                       Process affinity not being set.

Importing "./project1.cgns"

Opening library "C:\\PROGRA~1\\ANSYSI~1\\v231\\fluent\\fluent23.1.0\\vki\\win64\\devtools4.4.6.dll"... done.

Read    15196 nodes
   11016 hexahedral cells, zone  1
    8100 quadrilateral wall faces, zone  2.
   28746 quadrilateral interior faces, zone  3.
     249 quadrilateral interface faces, zone  4.
       6 quadrilateral wall faces, zone  5.

Building...
     mesh
     materials,
     interface,
     domains,
     zones,
	default_exterior-1
	interface-default_subface
	default_interior-1
	default_subface
	default
     parallel,
The automatic selection for flux type has changed to Rhie-Chow: momentum based.

Done.


> 
adjoint/                parallel/               server/
define/                 parametric-study/       solve/
display/                plot/                   surface/
exit                    preferences/            turbo-workflow/
file/                   print-license-usage     views/
mesh/                   report/

> /define/models/solver/density-based-implicit yes

> 
adjoint/                parallel/               server/
define/                 parametric-study/       solve/
display/                plot/                   surface/
exit                    preferences/            turbo-workflow/
file/                   print-license-usage     views/
mesh/                   report/

> /define/models/energy? yes yes invalid command [yes]
yes

> /define/models/viscous/inviscid yes

> 
adjoint/                parallel/               server/
define/                 parametric-study/       solve/
display/                plot/                   surface/
exit                    preferences/            turbo-workflow/
file/                   print-license-usage     views/
mesh/                   report/

> /define/materials/change-create air air air is a fluid
yes 
Density
ideal-gas no data required.

no no no no 

> 
adjoint/                parallel/               server/
define/                 parametric-study/       solve/
display/                plot/                   surface/
exit                    preferences/            turbo-workflow/
file/                   print-license-usage     views/
mesh/                   report/

> /mesh/modify-zones/sep-face-zone-angle 2 90 yes

 3672 faces in contiguous region 0
 228 faces in contiguous region 1
 324 faces in contiguous region 2
 3672 faces in contiguous region 3
 204 faces in contiguous region 4
 Separates zone 2 into 5 zone(s).
Updating new zone information...
   created new zone default_subface:010 from default_subface
   created new zone default_subface:009 from default_subface
   created new zone default_subface:008 from default_subface
   created new zone default_subface:007 from default_subface
done.

> 
adjoint/                parallel/               server/
define/                 parametric-study/       solve/
display/                plot/                   surface/
exit                    preferences/            turbo-workflow/
file/                   print-license-usage     views/
mesh/                   report/

> /define/boundary-conditions/zone-name  5   te

> /define/boundary-conditions/zone-name  7 wing

> /define/boundary-conditions/zone-name  2 sym1

> /define/boundary-conditions/zone-name  9 sym2

> 
adjoint/                parallel/               server/
define/                 parametric-study/       solve/
display/                plot/                   surface/
exit                    preferences/            turbo-workflow/
file/                   print-license-usage     views/
mesh/                   report/

> /define/boundary-conditions/zone-name  8 far1

> /define/boundary-conditions/zone-name 10 far2

> 
adjoint/                parallel/               server/
define/                 parametric-study/       solve/
display/                plot/                   surface/
exit                    preferences/            turbo-workflow/
file/                   print-license-usage     views/
mesh/                   report/

> /define/boundary-conditions/zone-type  8 pressure-far-field

> /define/boundary-conditions/zone-type 10 pressure-far-field

> /define/boundary-conditions/zone-type  2 symmetry

> /define/boundary-conditions/zone-type  9 symmetry

> 
adjoint/                parallel/               server/
define/                 parametric-study/       solve/
display/                plot/                   surface/
exit                    preferences/            turbo-workflow/
file/                   print-license-usage     views/
mesh/                   report/

> /define/boundary-conditions/pressure-far-field (far2 far1)
far1 no 0 no 0.1 no 300 yes no 1 no 0 no 0

> /define/boundary-conditions/pressure-far-field (far2 far1)
far2 no 0 no 0.1 no 300 yes no 1 no 0 no 0

> 
adjoint/                parallel/               server/
define/                 parametric-study/       solve/
display/                plot/                   surface/
exit                    preferences/            turbo-workflow/
file/                   print-license-usage     views/
mesh/                   report/

> /solve/initialize/compute-defaults/pressure-far-field (far2 far1)
far1

> /solve/initialize/initialize-flow

> 
adjoint/                parallel/               server/
define/                 parametric-study/       solve/
display/                plot/                   surface/
exit                    preferences/            turbo-workflow/
file/                   print-license-usage     views/
mesh/                   report/

> /solve/monitors/residual/convergence-criteria 1.e-9 1.e-9 1.e-9 1.e-9 1.e-9

> /solve/iterate 2000

  iter  continuity  x-velocity  y-velocity  z-velocity      energy     time/iter
     1  1.0000e+00  1.0000e+00  1.0000e+00  0.0000e+00  1.0000e+00  0:00:00 1999
     2  5.4703e-01  5.9524e-01  3.2748e-01  1.0000e+00  5.4773e-01  0:00:00 1998
     3  2.9070e-01  2.2860e-01  2.6007e-01  8.8238e-01  2.9095e-01  0:00:00 1997
     4  1.8347e-01  1.9741e-01  1.7513e-01  5.8720e-01  1.8353e-01  0:00:00 1996
     5  1.4216e-01  1.4779e-01  1.1502e-01  6.6934e-01  1.4226e-01  0:00:00 1995
     6  1.1893e-01  1.0385e-01  7.9963e-02  8.4359e-01  1.1908e-01  0:00:00 1994
     7  1.0234e-01  7.3287e-02  5.8836e-02  9.7878e-01  1.0251e-01  0:00:00 1993
     8  8.9191e-02  5.4829e-02  4.4828e-02  8.9778e-01  8.9367e-02  0:00:00 1992
     9  7.8987e-02  4.4025e-02  3.5117e-02  8.0842e-01  7.9161e-02  0:00:00 1991
    10  7.1035e-02  3.8050e-02  2.8290e-02  7.3190e-01  7.1203e-02  0:33:10 1990
    11  6.5068e-02  3.5120e-02  2.3348e-02  6.6208e-01  6.5227e-02  0:26:31 1989

  iter  continuity  x-velocity  y-velocity  z-velocity      energy     time/iter
    12  6.0939e-02  3.3948e-02  1.9757e-02  6.0431e-01  6.1091e-02  0:21:12 1988
    13  5.8073e-02  3.3747e-02  1.7193e-02  5.6249e-01  5.8218e-02  0:16:57 1987
    14  5.6417e-02  3.4339e-02  1.5330e-02  5.4457e-01  5.6555e-02  0:13:33 1986
    15  5.5649e-02  3.5400e-02  1.4131e-02  5.4369e-01  5.5781e-02  0:10:50 1985
    16  5.5590e-02  3.6817e-02  1.3450e-02  5.5456e-01  5.5716e-02  0:08:40 1984
    17  5.6052e-02  3.8380e-02  1.3126e-02  5.7307e-01  5.6172e-02  0:06:56 1983
    18  5.6888e-02  3.9950e-02  1.3087e-02  5.9689e-01  5.7001e-02  0:05:33 1982
    19  5.7912e-02  4.1394e-02  1.3326e-02  6.2375e-01  5.8017e-02  0:04:26 1981
    20  5.8946e-02  4.2614e-02  1.3797e-02  6.5057e-01  5.9043e-02  0:03:33 1980
    21  5.9834e-02  4.3511e-02  1.4433e-02  6.7379e-01  5.9922e-02  0:02:50 1979
    22  6.0446e-02  4.4007e-02  1.5173e-02  6.8995e-01  6.0525e-02  0:02:16 1978

  iter  continuity  x-velocity  y-velocity  z-velocity      energy     time/iter
    23  6.0681e-02  4.4065e-02  1.5951e-02  6.9538e-01  6.0750e-02  0:01:49 1977
    24  6.0462e-02  4.3675e-02  1.6710e-02  6.8607e-01  6.0520e-02  0:01:27 1976
    25  5.9736e-02  4.2820e-02  1.7399e-02  6.4175e-01  5.9784e-02  0:01:09 1975
    26  5.8474e-02  4.1520e-02  1.7976e-02  6.3212e-01  5.8513e-02  0:00:56 1974
    27  5.6664e-02  3.9786e-02  1.8414e-02  5.8634e-01  5.6694e-02  0:00:44 1973
    28  5.4306e-02  3.7652e-02  1.8692e-02  5.2704e-01  5.4327e-02  0:00:36 1972
    29  5.1423e-02  3.5150e-02  1.8796e-02  4.6134e-01  5.1438e-02  0:00:28 1971
    30  4.8051e-02  3.2298e-02  1.8712e-02  4.0219e-01  4.8060e-02  0:00:23 1970
    31  4.4236e-02  2.9160e-02  1.8426e-02  3.6261e-01  4.4240e-02  0:00:18 1969
    32  4.0037e-02  2.5814e-02  1.7942e-02  3.5943e-01  4.0038e-02  0:00:15 1968
    33  3.5524e-02  2.2354e-02  1.7272e-02  4.0043e-01  3.5523e-02  0:06:45 1967

  iter  continuity  x-velocity  y-velocity  z-velocity      energy     time/iter
    34  3.0782e-02  1.8915e-02  1.6434e-02  4.7497e-01  3.0780e-02  0:05:24 1966
    35  2.5900e-02  1.5653e-02  1.5454e-02  5.6710e-01  2.5897e-02  0:04:19 1965
    36  2.0993e-02  1.2909e-02  1.4355e-02  6.6651e-01  2.0989e-02  0:03:27 1964
    37  1.6178e-02  1.1110e-02  1.3179e-02  7.6469e-01  1.6173e-02  0:02:46 1963
    38  1.1685e-02  1.0744e-02  1.1954e-02  8.4972e-01  1.1676e-02  0:02:12 1962
    39  8.0433e-03  1.1862e-02  1.0709e-02  9.1744e-01  8.0249e-03  0:01:46 1961
    40  6.5482e-03  1.3995e-02  9.4834e-03  9.6861e-01  6.5153e-03  0:01:25 1960
    41  8.1114e-03  1.6623e-02  8.3272e-03  1.0035e+00  8.0742e-03  0:01:08 1959
    42  1.1226e-02  1.9397e-02  7.2870e-03  1.0242e+00  1.1190e-02  0:00:54 1958
    43  1.4685e-02  2.2138e-02  6.4185e-03  1.0251e+00  1.4651e-02  0:00:43 1957
    44  1.8080e-02  2.4715e-02  5.7741e-03  9.8785e-01  1.8047e-02  0:00:35 1956

  iter  continuity  x-velocity  y-velocity  z-velocity      energy     time/iter
    45  2.1270e-02  2.7097e-02  5.4022e-03  9.5739e-01  2.1238e-02  0:00:28 1955
    46  2.4159e-02  2.9233e-02  5.3215e-03  9.0281e-01  2.4128e-02  0:00:22 1954
    47  2.6670e-02  3.1067e-02  5.5073e-03  8.3089e-01  2.6641e-02  0:00:18 1953
    48  2.8789e-02  3.2604e-02  5.8756e-03  7.3748e-01  2.8761e-02  0:00:14 1952
    49  3.0519e-02  3.3803e-02  6.3569e-03  6.3793e-01  3.0494e-02  0:00:11 1951
    50  3.1882e-02  3.4689e-02  6.8665e-03  5.3685e-01  3.1860e-02  0:00:09 1950
    51  3.2895e-02  3.5271e-02  7.3523e-03  4.3785e-01  3.2875e-02  0:00:07 1949
    52  3.3575e-02  3.5562e-02  7.7887e-03  3.4417e-01  3.3558e-02  0:00:06 1948
    53  3.3937e-02  3.5548e-02  8.1701e-03  2.5935e-01  3.3923e-02  0:00:05 1947
    54  3.3997e-02  3.5244e-02  8.4854e-03  1.9337e-01  3.3986e-02  0:00:04 1946
    55  3.3770e-02  3.4662e-02  8.7313e-03  1.5736e-01  3.3761e-02  0:00:03 1945

  iter  continuity  x-velocity  y-velocity  z-velocity      energy     time/iter
    56  3.3269e-02  3.3816e-02  8.9047e-03  1.5955e-01  3.3263e-02  0:06:31 1944
    57  3.2508e-02  3.2717e-02  9.0040e-03  1.8893e-01  3.2504e-02  0:05:13 1943
    58  3.1497e-02  3.1364e-02  9.0289e-03  2.2575e-01  3.1495e-02  0:04:10 1942
    59  3.0246e-02  2.9757e-02  8.9796e-03  2.6020e-01  3.0247e-02  0:03:20 1941
    60  2.8764e-02  2.7926e-02  8.8634e-03  2.8820e-01  2.8766e-02  0:02:40 1940
    61  2.7059e-02  2.5867e-02  8.6862e-03  3.0483e-01  2.7063e-02  0:02:08 1939
    62  2.5144e-02  2.3622e-02  8.4433e-03  3.1132e-01  2.5148e-02  0:01:42 1938
    63  2.3033e-02  2.1246e-02  8.1319e-03  3.0957e-01  2.3037e-02  0:01:22 1937
    64  2.0736e-02  1.8767e-02  7.7616e-03  2.9757e-01  2.0740e-02  0:01:05 1936
    65  1.8277e-02  1.6242e-02  7.3371e-03  2.8455e-01  1.8281e-02  0:00:52 1935
    66  1.5683e-02  1.3763e-02  6.8626e-03  2.6772e-01  1.5686e-02  0:00:42 1934

  iter  continuity  x-velocity  y-velocity  z-velocity      energy     time/iter
    67  1.2985e-02  1.1458e-02  6.3481e-03  2.4810e-01  1.2987e-02  0:00:33 1933
    68  1.0245e-02  9.5352e-03  5.8032e-03  2.2491e-01  1.0245e-02  0:00:27 1932
    69  7.5418e-03  8.3188e-03  5.2436e-03  2.0191e-01  7.5394e-03  0:00:21 1931
    70  5.1035e-03  8.1290e-03  4.6878e-03  1.8272e-01  5.0982e-03  0:00:17 1930
    71  3.7050e-03  8.9807e-03  4.1585e-03  1.7091e-01  3.6973e-03  0:00:14 1929
    72  4.5045e-03  1.0543e-02  3.6947e-03  1.6992e-01  4.4999e-03  0:00:11 1928
    73  6.7027e-03  1.2452e-02  3.3467e-03  1.8231e-01  6.7018e-03  0:00:09 1927
    74  9.2611e-03  1.4458e-02  3.1711e-03  2.0584e-01  9.2628e-03  0:00:07 1926
    75  1.1838e-02  1.6413e-02  3.2023e-03  2.3581e-01  1.1841e-02  0:00:06 1925
    76  1.4303e-02  1.8235e-02  3.4270e-03  2.6874e-01  1.4307e-02  0:00:04 1924
    77  1.6600e-02  1.9866e-02  3.7978e-03  3.0112e-01  1.6605e-02  0:00:04 1923

  iter  continuity  x-velocity  y-velocity  z-velocity      energy     time/iter
    78  1.8683e-02  2.1261e-02  4.2597e-03  3.2995e-01  1.8689e-02  0:00:03 1922
    79  2.0513e-02  2.2393e-02  4.7696e-03  3.5306e-01  2.0518e-02  0:00:02 1921
    80  2.2056e-02  2.3240e-02  5.2908e-03  3.7018e-01  2.2060e-02  0:06:26 1920
    81  2.3287e-02  2.3794e-02  5.7946e-03  3.8007e-01  2.3291e-02  0:05:08 1919
    82  2.4193e-02  2.4054e-02  6.2584e-03  3.8109e-01  2.4196e-02  0:04:07 1918
    83  2.4764e-02  2.4027e-02  6.6657e-03  3.7158e-01  2.4766e-02  0:03:17 1917
    84  2.5000e-02  2.3721e-02  7.0055e-03  3.4734e-01  2.5001e-02  0:02:38 1916
    85  2.4905e-02  2.3142e-02  7.2729e-03  3.1357e-01  2.4905e-02  0:02:06 1915
    86  2.4489e-02  2.2325e-02  7.4570e-03  2.9016e-01  2.4488e-02  0:01:41 1914
    87  2.3771e-02  2.1296e-02  7.5557e-03  2.4734e-01  2.3769e-02  0:01:21 1913
    88  2.2767e-02  2.0076e-02  7.5717e-03  2.0359e-01  2.2764e-02  0:01:04 1912

  iter  continuity  x-velocity  y-velocity  z-velocity      energy     time/iter
    89  2.1499e-02  1.8695e-02  7.5069e-03  1.7211e-01  2.1496e-02  0:00:52 1911
    90  1.9996e-02  1.7196e-02  7.3622e-03  1.6915e-01  1.9992e-02  0:00:41 1910
    91  1.8286e-02  1.5629e-02  7.1429e-03  1.9990e-01  1.8282e-02  0:00:33 1909
    92  1.6398e-02  1.4045e-02  6.8589e-03  2.5564e-01  1.6394e-02  0:00:26 1908
    93  1.4367e-02  1.2495e-02  6.5189e-03  3.2586e-01  1.4364e-02  0:00:21 1907
    94  1.2237e-02  1.1076e-02  6.1238e-03  4.0305e-01  1.2234e-02  0:00:17 1906
    95  1.0057e-02  9.8853e-03  5.6825e-03  4.7981e-01  1.0055e-02  0:00:13 1905
    96  7.8928e-03  9.0367e-03  5.2063e-03  5.5340e-01  7.8902e-03  0:00:11 1904
    97  5.8411e-03  8.6113e-03  4.7087e-03  6.2035e-01  5.8386e-03  0:00:09 1903
    98  4.1056e-03  8.6343e-03  4.2044e-03  6.8089e-01  4.1024e-03  0:00:07 1902
    99  3.1984e-03  9.0460e-03  3.7106e-03  7.3341e-01  3.1934e-03  0:00:06 1901

  iter  continuity  x-velocity  y-velocity  z-velocity      energy     time/iter
   100  3.6517e-03  9.7333e-03  3.2477e-03  7.7614e-01  3.6457e-03  0:00:04 1900
   101  4.9809e-03  1.0576e-02  2.8432e-03  8.0750e-01  4.9748e-03  0:00:04 1899
   102  6.5514e-03  1.1478e-02  2.5267e-03  8.2756e-01  6.5452e-03  0:00:03 1898
   103  8.1231e-03  1.2369e-02  2.3281e-03  8.3482e-01  8.1168e-03  0:06:22 1897
   104  9.6070e-03  1.3205e-02  2.2644e-03  8.3041e-01  9.6006e-03  0:05:05 1896
   105  1.0959e-02  1.3950e-02  2.3281e-03  8.1317e-01  1.0952e-02  0:04:04 1895
   106  1.2154e-02  1.4585e-02  2.4893e-03  7.8128e-01  1.2148e-02  0:03:15 1894
   107  1.3178e-02  1.5096e-02  2.7102e-03  7.3486e-01  1.3172e-02  0:02:36 1893
   108  1.4023e-02  1.5473e-02  2.9564e-03  6.7330e-01  1.4017e-02  0:02:05 1892
   109  1.4684e-02  1.5712e-02  3.2047e-03  6.0641e-01  1.4678e-02  0:01:40 1891
   110  1.5161e-02  1.5814e-02  3.4386e-03  5.3470e-01  1.5156e-02  0:01:20 1890

  iter  continuity  x-velocity  y-velocity  z-velocity      energy     time/iter
   111  1.5460e-02  1.5780e-02  3.6482e-03  4.5964e-01  1.5456e-02  0:01:04 1889
   112  1.5574e-02  1.5609e-02  3.8278e-03  3.8753e-01  1.5570e-02  0:00:51 1888
   113  1.5511e-02  1.5309e-02  3.9700e-03  3.1536e-01  1.5508e-02  0:00:41 1887
   114  1.5283e-02  1.4886e-02  4.0744e-03  2.4431e-01  1.5280e-02  0:00:33 1886
   115  1.4900e-02  1.4350e-02  4.1390e-03  1.7347e-01  1.4898e-02  0:00:26 1885
   116  1.4376e-02  1.3710e-02  4.1630e-03  1.1992e-01  1.4374e-02  0:00:21 1884
   117  1.3721e-02  1.2977e-02  4.1478e-03  1.1910e-01  1.3720e-02  0:00:17 1883
   118  1.2951e-02  1.2167e-02  4.0949e-03  1.6903e-01  1.2951e-02  0:00:13 1882
   119  1.2071e-02  1.1290e-02  4.0079e-03  2.3752e-01  1.2070e-02  0:00:11 1881
   120  1.1091e-02  1.0364e-02  3.8883e-03  3.0819e-01  1.1091e-02  0:00:09 1880
   121  1.0028e-02  9.4100e-03  3.7383e-03  3.7576e-01  1.0028e-02  0:00:07 1879

  iter  continuity  x-velocity  y-velocity  z-velocity      energy     time/iter
   122  8.8975e-03  8.4544e-03  3.5607e-03  4.3964e-01  8.8972e-03  0:00:05 1878
   123  7.7174e-03  7.5270e-03  3.3586e-03  4.9642e-01  7.7169e-03  0:00:04 1877
   124  6.5080e-03  6.6659e-03  3.1354e-03  5.4609e-01  6.5073e-03  0:00:03 1876
   125  5.2926e-03  5.9184e-03  2.8958e-03  5.8800e-01  5.2915e-03  0:00:03 1875
   126  4.1037e-03  5.3331e-03  2.6449e-03  6.2038e-01  4.1020e-03  0:06:17 1874
   127  3.0027e-03  4.9747e-03  2.3883e-03  6.4254e-01  3.0001e-03  0:05:01 1873
   128  2.1333e-03  4.8793e-03  2.1336e-03  6.5682e-01  2.1294e-03  0:04:01 1872
   129  1.8340e-03  5.0334e-03  1.8903e-03  6.6083e-01  1.8293e-03  0:03:13 1871
   130  2.2803e-03  5.3868e-03  1.6706e-03  6.6171e-01  2.2766e-03  0:02:34 1870
   131  3.1135e-03  5.8691e-03  1.4899e-03  6.5579e-01  3.1109e-03  0:02:03 1869
   132  4.0497e-03  6.4152e-03  1.3660e-03  6.3677e-01  4.0479e-03  0:01:39 1868

  iter  continuity  x-velocity  y-velocity  z-velocity      energy     time/iter
   133  4.9819e-03  6.9790e-03  1.3134e-03  6.3381e-01  4.9806e-03  0:01:19 1867
   134  5.8662e-03  7.5270e-03  1.3357e-03  6.0817e-01  5.8652e-03  0:01:03 1866
   135  6.6802e-03  8.0351e-03  1.4227e-03  5.7450e-01  6.6794e-03  0:00:50 1865
   136  7.4100e-03  8.4860e-03  1.5549e-03  5.3584e-01  7.4093e-03  0:00:40 1864
   137  8.0450e-03  8.8688e-03  1.7136e-03  4.9312e-01  8.0444e-03  0:00:32 1863
   138  8.5787e-03  9.1750e-03  1.8827e-03  4.4829e-01  8.5781e-03  0:00:26 1862
   139  9.0083e-03  9.4002e-03  2.0496e-03  4.0520e-01  9.0077e-03  0:00:21 1861
   140  9.3312e-03  9.5423e-03  2.2078e-03  3.6235e-01  9.3306e-03  0:00:16 1860
   141  9.5458e-03  9.6001e-03  2.3513e-03  3.1486e-01  9.5451e-03  0:00:13 1859
   142  9.6518e-03  9.5750e-03  2.4760e-03  2.6586e-01  9.6510e-03  0:00:11 1858
   143  9.6499e-03  9.4686e-03  2.5791e-03  2.1820e-01  9.6490e-03  0:00:08 1857

  iter  continuity  x-velocity  y-velocity  z-velocity      energy     time/iter
   144  9.5423e-03  9.2854e-03  2.6582e-03  1.7428e-01  9.5413e-03  0:00:07 1856
   145  9.3325e-03  9.0306e-03  2.7121e-03  1.3608e-01  9.3315e-03  0:00:05 1855
   146  9.0252e-03  8.7122e-03  2.7397e-03  1.0963e-01  9.0242e-03  0:00:04 1854
   147  8.6264e-03  8.3402e-03  2.7410e-03  1.0355e-01  8.6253e-03  0:00:03 1853
   148  8.1430e-03  7.9261e-03  2.7155e-03  1.1756e-01  8.1420e-03  0:06:13 1852
   149  7.5832e-03  7.4837e-03  2.6642e-03  1.3677e-01  7.5822e-03  0:04:58 1851
   150  6.9558e-03  7.0288e-03  2.5884e-03  1.6662e-01  6.9549e-03  0:03:59 1850
   151  6.2709e-03  6.5790e-03  2.4898e-03  2.0010e-01  6.2701e-03  0:03:11 1849
   152  5.5377e-03  6.1541e-03  2.3705e-03  2.3163e-01  5.5370e-03  0:02:33 1848
   153  4.7690e-03  5.7700e-03  2.2326e-03  2.6047e-01  4.7684e-03  0:02:02 1847
   154  3.9810e-03  5.4606e-03  2.0792e-03  2.8652e-01  3.9805e-03  0:01:38 1846

  iter  continuity  x-velocity  y-velocity  z-velocity      energy     time/iter
   155  3.1914e-03  5.2425e-03  1.9142e-03  3.0928e-01  3.1909e-03  0:01:18 1845
   156  2.4270e-03  5.1291e-03  1.7417e-03  3.2865e-01  2.4265e-03  0:01:02 1844
   157  1.7417e-03  5.1241e-03  1.5669e-03  3.4400e-01  1.7411e-03  0:00:50 1843
   158  1.2716e-03  5.2205e-03  1.3958e-03  3.5495e-01  1.2704e-03  0:00:40 1842
   159  1.2561e-03  5.3987e-03  1.2354e-03  3.5991e-01  1.2544e-03  0:00:32 1841
   160  1.6722e-03  5.6347e-03  1.0952e-03  3.6684e-01  1.6704e-03  0:00:25 1840
   161  2.2593e-03  5.9073e-03  9.8614e-04  3.6814e-01  2.2575e-03  0:00:20 1839
   162  2.8802e-03  6.1947e-03  9.1918e-04  3.6690e-01  2.8784e-03  0:00:16 1838
   163  3.4841e-03  6.4792e-03  9.0122e-04  3.5943e-01  3.4823e-03  0:00:13 1837
   164  4.0454e-03  6.7479e-03  9.2979e-04  3.5086e-01  4.0436e-03  0:00:10 1836
   165  4.5558e-03  6.9869e-03  9.9514e-04  3.3728e-01  4.5540e-03  0:00:08 1835

  iter  continuity  x-velocity  y-velocity  z-velocity      energy     time/iter
   166  5.0074e-03  7.1870e-03  1.0841e-03  3.2072e-01  5.0055e-03  0:00:07 1834
   167  5.3944e-03  7.3428e-03  1.1847e-03  2.9955e-01  5.3927e-03  0:00:05 1833
   168  5.7133e-03  7.4508e-03  1.2876e-03  2.7491e-01  5.7115e-03  0:00:04 1832
   169  5.9615e-03  7.5080e-03  1.3864e-03  2.5065e-01  5.9598e-03  0:00:03 1831
   170  6.1382e-03  7.5140e-03  1.4766e-03  2.2710e-01  6.1366e-03  0:00:03 1830
   171  6.2435e-03  7.4694e-03  1.5540e-03  2.0048e-01  6.2420e-03  0:06:08 1829
   172  6.2786e-03  7.3757e-03  1.6180e-03  1.7270e-01  6.2772e-03  0:04:54 1828
   173  6.2454e-03  7.2347e-03  1.6668e-03  1.4304e-01  6.2441e-03  0:03:55 1827
   174  6.1464e-03  7.0491e-03  1.6995e-03  1.1229e-01  6.1452e-03  0:03:08 1826
   175  5.9850e-03  6.8256e-03  1.7157e-03  8.3910e-02  5.9840e-03  0:02:30 1825
   176  5.7652e-03  6.5701e-03  1.7157e-03  6.2229e-02  5.7642e-03  0:02:00 1824

  iter  continuity  x-velocity  y-velocity  z-velocity      energy     time/iter
   177  5.4913e-03  6.2873e-03  1.6998e-03  5.5219e-02  5.4904e-03  0:01:36 1823
   178  5.1681e-03  5.9849e-03  1.6685e-03  6.4540e-02  5.1673e-03  0:01:17 1822
   179  4.8009e-03  5.6724e-03  1.6229e-03  8.1405e-02  4.8002e-03  0:01:01 1821
   180  4.3955e-03  5.3595e-03  1.5641e-03  1.0058e-01  4.3949e-03  0:00:49 1820
   181  3.9580e-03  5.0575e-03  1.4932e-03  1.1920e-01  3.9575e-03  0:00:39 1819
   182  3.4948e-03  4.7762e-03  1.4118e-03  1.3685e-01  3.4943e-03  0:00:31 1818
   183  3.0127e-03  4.5269e-03  1.3216e-03  1.5505e-01  3.0122e-03  0:00:25 1817
   184  2.5170e-03  4.3092e-03  1.2245e-03  1.7178e-01  2.5166e-03  0:00:20 1816
   185  2.0199e-03  4.1491e-03  1.1228e-03  1.8508e-01  2.0196e-03  0:00:16 1815
   186  1.5386e-03  4.0499e-03  1.0189e-03  1.9581e-01  1.5384e-03  0:00:13 1814
   187  1.1032e-03  4.0147e-03  9.1591e-04  2.0456e-01  1.1031e-03  0:00:10 1813

  iter  continuity  x-velocity  y-velocity  z-velocity      energy     time/iter
   188  7.9231e-04  4.0357e-03  8.1810e-04  2.1120e-01  7.9249e-04  0:00:08 1812
   189  7.6340e-04  4.1132e-03  7.2999e-04  2.1570e-01  7.6384e-04  0:00:07 1811
   190  1.0209e-03  4.2320e-03  6.5708e-04  2.1794e-01  1.0214e-03  0:00:05 1810
   191  1.3960e-03  4.3761e-03  6.0621e-04  2.1907e-01  1.3964e-03  0:00:04 1809
   192  1.7982e-03  4.5344e-03  5.8270e-04  2.1789e-01  1.7986e-03  0:00:03 1808
   193  2.1942e-03  4.6995e-03  5.8838e-04  2.1388e-01  2.1944e-03  0:06:04 1807
   194  2.5693e-03  4.8625e-03  6.2004e-04  2.0576e-01  2.5695e-03  0:04:51 1806
   195  2.9158e-03  5.0152e-03  6.7135e-04  1.9719e-01  2.9160e-03  0:03:53 1805
   196  3.2284e-03  5.1499e-03  7.3446e-04  1.8823e-01  3.2285e-03  0:03:06 1804
   197  3.5029e-03  5.2604e-03  8.0290e-04  1.7975e-01  3.5029e-03  0:02:29 1803
   198  3.7363e-03  5.3421e-03  8.7204e-04  1.7044e-01  3.7362e-03  0:01:59 1802

  iter  continuity  x-velocity  y-velocity  z-velocity      energy     time/iter
   199  3.9263e-03  5.3936e-03  9.3869e-04  1.6398e-01  3.9261e-03  0:01:35 1801
   200  4.0710e-03  5.4136e-03  1.0001e-03  1.5641e-01  4.0707e-03  0:01:16 1800
   201  4.1693e-03  5.4018e-03  1.0543e-03  1.5066e-01  4.1689e-03  0:01:01 1799
   202  4.2204e-03  5.3571e-03  1.1001e-03  1.4730e-01  4.2200e-03  0:00:49 1798
   203  4.2244e-03  5.2806e-03  1.1367e-03  1.4615e-01  4.2239e-03  0:00:39 1797
   204  4.1815e-03  5.1738e-03  1.1632e-03  1.4814e-01  4.1810e-03  0:00:31 1796
   205  4.0927e-03  5.0386e-03  1.1791e-03  1.5052e-01  4.0921e-03  0:00:25 1795
   206  3.9595e-03  4.8828e-03  1.1843e-03  1.5184e-01  3.9588e-03  0:00:20 1794
   207  3.7839e-03  4.7093e-03  1.1788e-03  1.5350e-01  3.7831e-03  0:00:16 1793
   208  3.5683e-03  4.5236e-03  1.1628e-03  1.5585e-01  3.5675e-03  0:00:13 1792
   209  3.3158e-03  4.3319e-03  1.1364e-03  1.5800e-01  3.3149e-03  0:00:10 1791

  iter  continuity  x-velocity  y-velocity  z-velocity      energy     time/iter
   210  3.0300e-03  4.1423e-03  1.1005e-03  1.6051e-01  3.0292e-03  0:00:08 1790
   211  2.7151e-03  3.9624e-03  1.0556e-03  1.7399e-01  2.7142e-03  0:00:06 1789
   212  2.3756e-03  3.7996e-03  1.0027e-03  1.8319e-01  2.3746e-03  0:00:05 1788
   213  2.0176e-03  3.6660e-03  9.4305e-04  1.8596e-01  2.0165e-03  0:00:04 1787
   214  1.6482e-03  3.5692e-03  8.7767e-04  1.7970e-01  1.6469e-03  0:00:03 1786
   215  1.2777e-03  3.5136e-03  8.0828e-04  1.6743e-01  1.2762e-03  0:00:03 1785
   216  9.2535e-04  3.5005e-03  7.3732e-04  1.6275e-01  9.2335e-04  0:05:59 1784
   217  6.3972e-04  3.5289e-03  6.6738e-04  1.6447e-01  6.3688e-04  0:04:47 1783
   218  5.4396e-04  3.5936e-03  6.0156e-04  1.7022e-01  5.4064e-04  0:03:49 1782
   219  7.0644e-04  3.6795e-03  5.4378e-04  1.7183e-01  7.0385e-04  0:03:03 1781
   220  9.9724e-04  3.7802e-03  5.0005e-04  1.7741e-01  9.9537e-04  0:02:27 1780

  iter  continuity  x-velocity  y-velocity  z-velocity      energy     time/iter
   221  1.3225e-03  3.8995e-03  4.7201e-04  1.8552e-01  1.3211e-03  0:01:57 1779
   222  1.6444e-03  4.0247e-03  4.6435e-04  1.9510e-01  1.6432e-03  0:01:34 1778
   223  1.9485e-03  4.1477e-03  4.7742e-04  2.1128e-01  1.9474e-03  0:01:15 1777
   224  2.2266e-03  4.2588e-03  5.0780e-04  2.2703e-01  2.2256e-03  0:01:00 1776
   225  2.4741e-03  4.3586e-03  5.4906e-04  2.4501e-01  2.4732e-03  0:00:48 1775
   226  2.6867e-03  4.4400e-03  5.9636e-04  2.6582e-01  2.6859e-03  0:00:38 1774
   227  2.8618e-03  4.4999e-03  6.4724e-04  2.9090e-01  2.8611e-03  0:00:31 1773
   228  2.9978e-03  4.5380e-03  6.9529e-04  3.4109e-01  2.9971e-03  0:00:24 1772
   229  3.0925e-03  4.5519e-03  7.3866e-04  4.2940e-01  3.0919e-03  0:00:20 1771
   230  3.1461e-03  4.5420e-03  7.7754e-04  5.3557e-01  3.1456e-03  0:00:16 1770
   231  3.1589e-03  4.5099e-03  8.1004e-04  6.0133e-01  3.1585e-03  0:00:13 1769

  iter  continuity  x-velocity  y-velocity  z-velocity      energy     time/iter
   232  3.1315e-03  4.4581e-03  8.3470e-04  5.8836e-01  3.1311e-03  0:00:10 1768
   233  3.0651e-03  4.3887e-03  8.5156e-04  5.2744e-01  3.0648e-03  0:00:08 1767
   234  2.9617e-03  4.3049e-03  8.6038e-04  4.4221e-01  2.9615e-03  0:00:06 1766
   235  2.8236e-03  4.2111e-03  8.6089e-04  3.4225e-01  2.8235e-03  0:00:05 1765
   236  2.6530e-03  4.1107e-03  8.5307e-04  2.4958e-01  2.6529e-03  0:00:04 1764
   237  2.4543e-03  4.0096e-03  8.3679e-04  2.1634e-01  2.4544e-03  0:00:03 1763
   238  2.2314e-03  3.9108e-03  8.1312e-04  2.4274e-01  2.2315e-03  0:00:03 1762
   239  1.9883e-03  3.8179e-03  7.8195e-04  2.8079e-01  1.9886e-03  0:05:54 1761
   240  1.7295e-03  3.7355e-03  7.4418e-04  3.0515e-01  1.7298e-03  0:04:43 1760
   241  1.4600e-03  3.6672e-03  7.0122e-04  3.1430e-01  1.4604e-03  0:03:46 1759
   242  1.1862e-03  3.6138e-03  6.5388e-04  3.1325e-01  1.1868e-03  0:03:01 1758

  iter  continuity  x-velocity  y-velocity  z-velocity      energy     time/iter
   243  9.1690e-04  3.5741e-03  6.0291e-04  2.9391e-01  9.1770e-04  0:02:25 1757
   244  6.6774e-04  3.5481e-03  5.5046e-04  2.6762e-01  6.6878e-04  0:01:56 1756
   245  4.7603e-04  3.5358e-03  4.9825e-04  2.4172e-01  4.7737e-04  0:01:33 1755
   246  4.2139e-04  3.5361e-03  4.4825e-04  2.2271e-01  4.2270e-04  0:01:14 1754
   247  5.3412e-04  3.5465e-03  4.0310e-04  2.0995e-01  5.3496e-04  0:00:59 1753
   248  7.2749e-04  3.5641e-03  3.6564e-04  2.0781e-01  7.2794e-04  0:00:47 1752
   249  9.3982e-04  3.5857e-03  3.3813e-04  2.2831e-01  9.4002e-04  0:00:38 1751
   250  1.1481e-03  3.6086e-03  3.2452e-04  2.7599e-01  1.1482e-03  0:00:30 1750
   251  1.3425e-03  3.6294e-03  3.2560e-04  3.3153e-01  1.3424e-03  0:00:24 1749
   252  1.5171e-03  3.6429e-03  3.3804e-04  3.6919e-01  1.5169e-03  0:00:19 1748
   253  1.6700e-03  3.6510e-03  3.6170e-04  3.8901e-01  1.6697e-03  0:00:15 1747

  iter  continuity  x-velocity  y-velocity  z-velocity      energy     time/iter
   254  1.7985e-03  3.6487e-03  3.9099e-04  3.8909e-01  1.7982e-03  0:00:12 1746
   255  1.9016e-03  3.6401e-03  4.2269e-04  3.6920e-01  1.9012e-03  0:00:10 1745
   256  1.9784e-03  3.6228e-03  4.5433e-04  3.1890e-01  1.9780e-03  0:00:08 1744
   257  2.0286e-03  3.5968e-03  4.8410e-04  2.7594e-01  2.0281e-03  0:00:06 1743
   258  2.0522e-03  3.5621e-03  5.1039e-04  2.4149e-01  2.0517e-03  0:05:53 1742
   259  2.0484e-03  3.5022e-03  5.3186e-04  2.1654e-01  2.0479e-03  0:04:43 1741
   260  2.0213e-03  3.4475e-03  5.4879e-04  2.0000e-01  2.0207e-03  0:03:46 1740
   261  1.9703e-03  3.3911e-03  5.6039e-04  1.8705e-01  1.9697e-03  0:03:01 1739
   262  1.8964e-03  3.3326e-03  5.6636e-04  1.7411e-01  1.8958e-03  0:02:24 1738
   263  1.8018e-03  3.2780e-03  5.6744e-04  1.6115e-01  1.8011e-03  0:01:55 1737
   264  1.6886e-03  3.2227e-03  5.6267e-04  1.4738e-01  1.6879e-03  0:01:32 1736

  iter  continuity  x-velocity  y-velocity  z-velocity      energy     time/iter
   265  1.5583e-03  3.1663e-03  5.5257e-04  1.3385e-01  1.5576e-03  0:01:14 1735
   266  1.4133e-03  3.1084e-03  5.3739e-04  1.2163e-01  1.4126e-03  0:00:59 1734
   267  1.2564e-03  3.0546e-03  5.1738e-04  1.1091e-01  1.2556e-03  0:00:47 1733
   268  1.0904e-03  3.0074e-03  4.9284e-04  1.0246e-01  1.0895e-03  0:00:38 1732
   269  9.1875e-04  2.9695e-03  4.6483e-04  9.5864e-02  9.1771e-04  0:00:30 1731
   270  7.4540e-04  2.9423e-03  4.3431e-04  9.0891e-02  7.4416e-04  0:00:24 1730
   271  5.7599e-04  2.9258e-03  4.0223e-04  8.7270e-02  5.7445e-04  0:00:19 1729
   272  4.2130e-04  2.9202e-03  3.6914e-04  8.4244e-02  4.1930e-04  0:00:15 1728
   273  3.0709e-04  2.9249e-03  3.3610e-04  8.1894e-02  3.0448e-04  0:00:12 1727
   274  2.8324e-04  2.9365e-03  3.0458e-04  8.6530e-02  2.8055e-04  0:00:10 1726
   275  3.6050e-04  2.9549e-03  2.7589e-04  9.1668e-02  3.5849e-04  0:00:08 1725

  iter  continuity  x-velocity  y-velocity  z-velocity      energy     time/iter
   276  4.8502e-04  2.9807e-03  2.5233e-04  9.9261e-02  4.8360e-04  0:00:06 1724
   277  6.2103e-04  3.0110e-03  2.3588e-04  1.0265e-01  6.1998e-04  0:00:05 1723
   278  7.5439e-04  3.0436e-03  2.2730e-04  9.2397e-02  7.5358e-04  0:00:04 1722
   279  8.7917e-04  3.0772e-03  2.2799e-04  8.6197e-02  8.7853e-04  0:00:03 1721
   280  9.9221e-04  3.1106e-03  2.3665e-04  8.2806e-02  9.9169e-04  0:00:03 1720
   281  1.0914e-03  3.1416e-03  2.5137e-04  8.0960e-02  1.0909e-03  0:00:02 1719
   282  1.1752e-03  3.1687e-03  2.7003e-04  8.3428e-02  1.1748e-03  0:00:02 1718
   283  1.2427e-03  3.1915e-03  2.9008e-04  8.6073e-02  1.2424e-03  0:05:45 1717
   284  1.2932e-03  3.2096e-03  3.1014e-04  8.6042e-02  1.2930e-03  0:04:36 1716
   285  1.3266e-03  3.2224e-03  3.2910e-04  8.5239e-02  1.3265e-03  0:03:40 1715
   286  1.3428e-03  3.2298e-03  3.4614e-04  8.5563e-02  1.3427e-03  0:02:56 1714

  iter  continuity  x-velocity  y-velocity  z-velocity      energy     time/iter
   287  1.3420e-03  3.2325e-03  3.5984e-04  8.2603e-02  1.3420e-03  0:02:21 1713
   288  1.3249e-03  3.2311e-03  3.7087e-04  7.7824e-02  1.3249e-03  0:01:53 1712
   289  1.2919e-03  3.2250e-03  3.7940e-04  7.6140e-02  1.2920e-03  0:01:30 1711
   290  1.2439e-03  3.2100e-03  3.8391e-04  9.0714e-02  1.2440e-03  0:01:12 1710
   291  1.1824e-03  3.1965e-03  3.8452e-04  1.3297e-01  1.1826e-03  0:00:58 1709
   292  1.1086e-03  3.1814e-03  3.8191e-04  1.7492e-01  1.1088e-03  0:00:46 1708
   293  1.0237e-03  3.1641e-03  3.7617e-04  1.9582e-01  1.0240e-03  0:00:37 1707
   294  9.2930e-04  3.1470e-03  3.6711e-04  2.0056e-01  9.2976e-04  0:00:29 1706
   295  8.2714e-04  3.1305e-03  3.5526e-04  1.9413e-01  8.2771e-04  0:00:24 1705
   296  7.1918e-04  3.1140e-03  3.4025e-04  1.8064e-01  7.1987e-04  0:00:19 1704
   297  6.0769e-04  3.0990e-03  3.2300e-04  1.6370e-01  6.0855e-04  0:00:15 1703

  iter  continuity  x-velocity  y-velocity  z-velocity      energy     time/iter
   298  4.9540e-04  3.0853e-03  3.0438e-04  1.4493e-01  4.9647e-04  0:00:12 1702
   299  3.8643e-04  3.0727e-03  2.8503e-04  1.2597e-01  3.8779e-04  0:00:10 1701
   300  2.8846e-04  3.0617e-03  2.6572e-04  1.0806e-01  2.9024e-04  0:00:08 1700
   301  2.1649e-04  3.0522e-03  2.4389e-04  9.1775e-02  2.1866e-04  0:00:06 1699
   302  2.0191e-04  3.0443e-03  2.2413e-04  7.8526e-02  2.0397e-04  0:00:05 1698
   303  2.4824e-04  3.0376e-03  2.0702e-04  6.7808e-02  2.4969e-04  0:00:04 1697
   304  3.2504e-04  3.0327e-03  1.9308e-04  5.9005e-02  3.2597e-04  0:00:03 1696
   305  4.0891e-04  3.0303e-03  1.8396e-04  5.5293e-02  4.0947e-04  0:00:03 1695
   306  4.9363e-04  3.0282e-03  1.7478e-04  5.5688e-02  4.9392e-04  0:05:41 1694
   307  5.7328e-04  3.0242e-03  1.7402e-04  5.9091e-02  5.7341e-04  0:04:32 1693
   308  6.4436e-04  3.0177e-03  1.7867e-04  6.5331e-02  6.4438e-04  0:03:38 1692

  iter  continuity  x-velocity  y-velocity  z-velocity      energy     time/iter
   309  7.0554e-04  3.0093e-03  1.8663e-04  7.2420e-02  7.0549e-04  0:02:54 1691
   310  7.5641e-04  2.9986e-03  1.9624e-04  8.1399e-02  7.5630e-04  0:02:19 1690
   311  7.9663e-04  2.9862e-03  2.0668e-04  9.3593e-02  7.9647e-04  0:01:51 1689
   312  8.2592e-04  2.9736e-03  2.1737e-04  1.0704e-01  8.2572e-04  0:01:29 1688
   313  8.4404e-04  2.9567e-03  2.2824e-04  1.1909e-01  8.4380e-04  0:01:11 1687
   314  8.5116e-04  2.9389e-03  2.3840e-04  1.3375e-01  8.5089e-04  0:00:57 1686
   315  8.4781e-04  2.9195e-03  2.4618e-04  1.5030e-01  8.4751e-04  0:00:45 1685
   316  8.3418e-04  2.8977e-03  2.5176e-04  1.6372e-01  8.3386e-04  0:00:36 1684
   317  8.1067e-04  2.8765e-03  2.5491e-04  1.7250e-01  8.1033e-04  0:00:29 1683
   318  7.7785e-04  2.8580e-03  2.5630e-04  1.7355e-01  7.7750e-04  0:00:23 1682
   319  7.3687e-04  2.8417e-03  2.5712e-04  1.6706e-01  7.3652e-04  0:00:19 1681

  iter  continuity  x-velocity  y-velocity  z-velocity      energy     time/iter
   320  6.8804e-04  2.8213e-03  2.5385e-04  1.6397e-01  6.8769e-04  0:00:15 1680
   321  6.3265e-04  2.8004e-03  2.4914e-04  1.7497e-01  6.3228e-04  0:00:12 1679
   322  5.7187e-04  2.7818e-03  2.4308e-04  1.9669e-01  5.7148e-04  0:00:10 1678
   323  5.0675e-04  2.7659e-03  2.3544e-04  2.2566e-01  5.0633e-04  0:00:08 1677
   324  4.3852e-04  2.7526e-03  2.2620e-04  2.6695e-01  4.3808e-04  0:00:06 1676
   325  3.6854e-04  2.7420e-03  2.1465e-04  3.2186e-01  3.6805e-04  0:00:05 1675
   326  2.9936e-04  2.7326e-03  2.0201e-04  3.9648e-01  2.9879e-04  0:00:04 1674
   327  2.3577e-04  2.7249e-03  1.9095e-04  5.0022e-01  2.3513e-04  0:00:03 1673
   328  1.7960e-04  2.7190e-03  1.7991e-04  5.9148e-01  1.7890e-04  0:00:02 1672
   329  1.4272e-04  2.7203e-03  1.6944e-04  6.2200e-01  1.4197e-04  0:00:02 1671
   330  1.3974e-04  2.7283e-03  1.5898e-04  5.8442e-01  1.3913e-04  0:05:36 1670

  iter  continuity  x-velocity  y-velocity  z-velocity      energy     time/iter
   331  1.6966e-04  2.7398e-03  1.5025e-04  4.9298e-01  1.6928e-04  0:04:28 1669
   332  2.1416e-04  2.7538e-03  1.4628e-04  3.7588e-01  2.1393e-04  0:03:35 1668
   333  2.6546e-04  2.7704e-03  1.4075e-04  2.8805e-01  2.6532e-04  0:02:52 1667
   334  3.1549e-04  2.7837e-03  1.3814e-04  3.0513e-01  3.1541e-04  0:02:17 1666
   335  3.6216e-04  2.7948e-03  1.3872e-04  4.0266e-01  3.6213e-04  0:01:50 1665
   336  4.0440e-04  2.8056e-03  1.4124e-04  4.9473e-01  4.0441e-04  0:01:28 1664
   337  4.4133e-04  2.8155e-03  1.4540e-04  5.2597e-01  4.4136e-04  0:01:10 1663
   338  4.7233e-04  2.8233e-03  1.5092e-04  5.0981e-01  4.7238e-04  0:00:56 1662
   339  4.9727e-04  2.8366e-03  1.5778e-04  4.8519e-01  4.9736e-04  0:00:45 1661
   340  5.1542e-04  2.8438e-03  1.6210e-04  4.5552e-01  5.1552e-04  0:00:36 1660
   341  5.2694e-04  2.8478e-03  1.6695e-04  4.2065e-01  5.2704e-04  0:00:29 1659

  iter  continuity  x-velocity  y-velocity  z-velocity      energy     time/iter
   342  5.3157e-04  2.8492e-03  1.6955e-04  3.8255e-01  5.3166e-04  0:00:23 1658
   343  5.3066e-04  2.8473e-03  1.7300e-04  3.4314e-01  5.3075e-04  0:00:18 1657
   344  5.2349e-04  2.8426e-03  1.7723e-04  2.8795e-01  5.2358e-04  0:00:15 1656
   345  5.0942e-04  2.8360e-03  1.7976e-04  2.2873e-01  5.0947e-04  0:00:12 1655
   346  4.9040e-04  2.8272e-03  1.8148e-04  2.1341e-01  4.9042e-04  0:00:09 1654
   347  4.6654e-04  2.8153e-03  1.8051e-04  2.1787e-01  4.6652e-04  0:00:07 1653
   348  4.3806e-04  2.8015e-03  1.7830e-04  2.2218e-01  4.3802e-04  0:00:06 1652
   349  4.0554e-04  2.7881e-03  1.7534e-04  2.1892e-01  4.0547e-04  0:00:05 1651
   350  3.6998e-04  2.7783e-03  1.7372e-04  2.0601e-01  3.6987e-04  0:00:04 1650
   351  3.3258e-04  2.7705e-03  1.6954e-04  1.8907e-01  3.3240e-04  0:05:33 1649
   352  2.9364e-04  2.7643e-03  1.6305e-04  1.7627e-01  2.9338e-04  0:04:26 1648

  iter  continuity  x-velocity  y-velocity  z-velocity      energy     time/iter
   353  2.5389e-04  2.7593e-03  1.5632e-04  1.6568e-01  2.5352e-04  0:03:33 1647
   354  2.1588e-04  2.7509e-03  1.4724e-04  1.5482e-01  2.1542e-04  0:02:50 1646
   355  1.7909e-04  2.7414e-03  1.4117e-04  1.4183e-01  1.7851e-04  0:02:16 1645
   356  1.4787e-04  2.7368e-03  1.3578e-04  1.2793e-01  1.4711e-04  0:01:49 1644
   357  1.2582e-04  2.7342e-03  1.2993e-04  1.1828e-01  1.2482e-04  0:01:27 1643
   358  1.1757e-04  2.7306e-03  1.2412e-04  1.2611e-01  1.1639e-04  0:01:10 1642
   359  1.2392e-04  2.7203e-03  1.1886e-04  1.6234e-01  1.2272e-04  0:00:56 1641
   360  1.4309e-04  2.7079e-03  1.1389e-04  2.2266e-01  1.4203e-04  0:00:44 1640
   361  1.6795e-04  2.6915e-03  1.1024e-04  3.0141e-01  1.6698e-04  0:00:36 1639
   362  1.9655e-04  2.6739e-03  1.0546e-04  3.8593e-01  1.9568e-04  0:00:28 1638
   363  2.2390e-04  2.6567e-03  1.0183e-04  4.6504e-01  2.2311e-04  0:00:23 1637

  iter  continuity  x-velocity  y-velocity  z-velocity      energy     time/iter
   364  2.4929e-04  2.6367e-03  1.0140e-04  5.3085e-01  2.4858e-04  0:00:18 1636
   365  2.7104e-04  2.6069e-03  1.0146e-04  5.8734e-01  2.7037e-04  0:00:15 1635
   366  2.8967e-04  2.5779e-03  1.0184e-04  6.3818e-01  2.8904e-04  0:00:12 1634
   367  3.0507e-04  2.5508e-03  1.0338e-04  7.1046e-01  3.0449e-04  0:00:09 1633
   368  3.1719e-04  2.5162e-03  1.0555e-04  7.5987e-01  3.1665e-04  0:00:07 1632
   369  3.2590e-04  2.4859e-03  1.0697e-04  7.7175e-01  3.2538e-04  0:00:06 1631
   370  3.3063e-04  2.4588e-03  1.0872e-04  7.6765e-01  3.3013e-04  0:00:05 1630
   371  3.3153e-04  2.4355e-03  1.1064e-04  7.4148e-01  3.3105e-04  0:00:04 1629
   372  3.2877e-04  2.4090e-03  1.1237e-04  6.8929e-01  3.2828e-04  0:00:03 1628
   373  3.2253e-04  2.3838e-03  1.1367e-04  6.0573e-01  3.2202e-04  0:00:02 1627
   374  3.1276e-04  2.3600e-03  1.1256e-04  4.9818e-01  3.1227e-04  0:00:02 1626

  iter  continuity  x-velocity  y-velocity  z-velocity      energy     time/iter
   375  2.9985e-04  2.3379e-03  1.1072e-04  4.0313e-01  2.9943e-04  0:05:27 1625
   376  2.8455e-04  2.3195e-03  1.1019e-04  3.6806e-01  2.8420e-04  0:04:21 1624
   377  2.6678e-04  2.3025e-03  1.0957e-04  4.0663e-01  2.6646e-04  0:03:29 1623
   378  2.4707e-04  2.2876e-03  1.0861e-04  5.1074e-01  2.4674e-04  0:02:47 1622
   379  2.2505e-04  2.2736e-03  1.0676e-04  6.7965e-01  2.2471e-04  0:02:13 1621
   380  2.0181e-04  2.2597e-03  1.0492e-04  8.7708e-01  2.0144e-04  0:01:47 1620
   381  1.7826e-04  2.2470e-03  1.0469e-04  1.0494e+00  1.7783e-04  0:01:25 1619
   382  1.5439e-04  2.2346e-03  9.2805e-05  1.1546e+00  1.5404e-04  0:01:08 1618
   383  1.3200e-04  2.2200e-03  9.0503e-05  1.1665e+00  1.3172e-04  0:00:55 1617
   384  1.1272e-04  2.2018e-03  8.5534e-05  1.1129e+00  1.1252e-04  0:00:44 1616
   385  9.4196e-05  2.1809e-03  7.9843e-05  1.0168e+00  9.4085e-05  0:00:35 1615

  iter  continuity  x-velocity  y-velocity  z-velocity      energy     time/iter
   386  7.4855e-05  2.1507e-03  7.5963e-05  8.9531e-01  7.4886e-05  0:00:28 1614
   387  6.8088e-05  2.1126e-03  7.2189e-05  7.7268e-01  6.8139e-05  0:00:22 1613
   388  7.6428e-05  2.0794e-03  6.7557e-05  6.5812e-01  7.6422e-05  0:00:18 1612
   389  9.3038e-05  2.0538e-03  6.3842e-05  5.6067e-01  9.2969e-05  0:00:14 1611
   390  1.1157e-04  2.0323e-03  6.1685e-05  4.8776e-01  1.1147e-04  0:00:11 1610
   391  1.3027e-04  2.0126e-03  6.0811e-05  4.4376e-01  1.3015e-04  0:00:09 1609
   392  1.4817e-04  1.9947e-03  6.0462e-05  4.1122e-01  1.4801e-04  0:00:07 1608
   393  1.6418e-04  1.9765e-03  6.0572e-05  3.7740e-01  1.6399e-04  0:00:06 1607
   394  1.7845e-04  1.9598e-03  6.0841e-05  3.4254e-01  1.7823e-04  0:00:05 1606
   395  1.9075e-04  1.9437e-03  6.1592e-05  3.1284e-01  1.9047e-04  0:00:04 1605
   396  2.0072e-04  1.9277e-03  6.2832e-05  2.8434e-01  2.0039e-04  0:00:03 1604

  iter  continuity  x-velocity  y-velocity  z-velocity      energy     time/iter
   397  2.0825e-04  1.9118e-03  6.4019e-05  2.5270e-01  2.0790e-04  0:00:02 1603
   398  2.1323e-04  1.8947e-03  6.3542e-05  2.3222e-01  2.1288e-04  0:00:02 1602
   399  2.1591e-04  1.8781e-03  6.5802e-05  2.2429e-01  2.1555e-04  0:05:22 1601
   400  2.1644e-04  1.8620e-03  6.8108e-05  2.2357e-01  2.1604e-04  0:04:17 1600
   401  2.1461e-04  1.8467e-03  6.8707e-05  2.2948e-01  2.1418e-04  0:03:26 1599
   402  2.1027e-04  1.8317e-03  6.8584e-05  2.2904e-01  2.0982e-04  0:02:44 1598
   403  2.0343e-04  1.8151e-03  6.8407e-05  2.2302e-01  2.0294e-04  0:02:11 1597
   404  1.9495e-04  1.7997e-03  6.7682e-05  2.1588e-01  1.9442e-04  0:01:45 1596
   405  1.8476e-04  1.7848e-03  6.6747e-05  2.0637e-01  1.8419e-04  0:01:24 1595
   406  1.7300e-04  1.7702e-03  6.5565e-05  1.7953e-01  1.7238e-04  0:01:07 1594
   407  1.5998e-04  1.7561e-03  6.4042e-05  1.8080e-01  1.5928e-04  0:00:54 1593

  iter  continuity  x-velocity  y-velocity  z-velocity      energy     time/iter
   408  1.4604e-04  1.7416e-03  6.2425e-05  2.4446e-01  1.4526e-04  0:00:43 1592
   409  1.3176e-04  1.7252e-03  6.0643e-05  3.1226e-01  1.3087e-04  0:00:34 1591
   410  1.1710e-04  1.7103e-03  5.7632e-05  3.5512e-01  1.1609e-04  0:00:27 1590
   411  1.0158e-04  1.6943e-03  5.4371e-05  3.7378e-01  1.0041e-04  0:00:22 1589
   412  8.6559e-05  1.6779e-03  5.1569e-05  3.5446e-01  8.5178e-05  0:00:18 1588
   413  7.3834e-05  1.6619e-03  4.8858e-05  3.1343e-01  7.2212e-05  0:00:14 1587
   414  6.4092e-05  1.6431e-03  4.6244e-05  2.7031e-01  6.2221e-05  0:00:11 1586
   415  5.9564e-05  1.6251e-03  4.3810e-05  2.1973e-01  5.7605e-05  0:00:09 1585
   416  6.1085e-05  1.6072e-03  4.1964e-05  1.7553e-01  5.9292e-05  0:00:07 1584
   417  6.7825e-05  1.5900e-03  4.0659e-05  1.4707e-01  6.6288e-05  0:00:06 1583
   418  7.7165e-05  1.5721e-03  3.9822e-05  1.2834e-01  7.5853e-05  0:00:05 1582

  iter  continuity  x-velocity  y-velocity  z-velocity      energy     time/iter
   419  8.6879e-05  1.5523e-03  3.8830e-05  1.1811e-01  8.5745e-05  0:00:04 1581
   420  9.7796e-05  1.5365e-03  3.7665e-05  1.1002e-01  9.6837e-05  0:00:03 1580
   421  1.0839e-04  1.5229e-03  3.7113e-05  1.0119e-01  1.0756e-04  0:00:02 1579
   422  1.1828e-04  1.5112e-03  3.7868e-05  1.0157e-01  1.1757e-04  0:00:02 1578
   423  1.2724e-04  1.5011e-03  3.9721e-05  9.7379e-02  1.2664e-04  0:05:17 1577
   424  1.3499e-04  1.4926e-03  4.1775e-05  9.1405e-02  1.3449e-04  0:04:13 1576
   425  1.3954e-04  1.4773e-03  4.3929e-05  8.5334e-02  1.3913e-04  0:03:23 1575
   426  1.4385e-04  1.4671e-03  4.5394e-05  8.0126e-02  1.4350e-04  0:02:42 1574
   427  1.4698e-04  1.4598e-03  4.7125e-05  7.5803e-02  1.4668e-04  0:02:09 1573
   428  1.4875e-04  1.4554e-03  4.8845e-05  7.2299e-02  1.4847e-04  0:01:44 1572
   429  1.4914e-04  1.4536e-03  5.0559e-05  6.9268e-02  1.4890e-04  0:01:23 1571

  iter  continuity  x-velocity  y-velocity  z-velocity      energy     time/iter
   430  1.4821e-04  1.4542e-03  5.2321e-05  6.7432e-02  1.4798e-04  0:01:06 1570
   431  1.4606e-04  1.4576e-03  5.4096e-05  6.5595e-02  1.4586e-04  0:00:53 1569
   432  1.4193e-04  1.4519e-03  5.5865e-05  6.3399e-02  1.4176e-04  0:00:42 1568
   433  1.3728e-04  1.4433e-03  5.5705e-05  6.0660e-02  1.3713e-04  0:00:34 1567
   434  1.3225e-04  1.4387e-03  5.4515e-05  5.8356e-02  1.3212e-04  0:00:27 1566
   435  1.2675e-04  1.4360e-03  5.3635e-05  5.7373e-02  1.2661e-04  0:00:22 1565
   436  1.1403e-04  1.4082e-03  5.2111e-05  5.7035e-02  1.1392e-04  0:00:17 1564
   437  1.0154e-04  1.3838e-03  5.0165e-05  5.6605e-02  1.0145e-04  0:05:26 1563
   438  9.0147e-05  1.3647e-03  4.8388e-05  5.5705e-02  9.0053e-05  0:04:21 1562
   439  7.9573e-05  1.3488e-03  4.6546e-05  5.4191e-02  7.9453e-05  0:03:29 1561
   440  6.9575e-05  1.3333e-03  4.4591e-05  5.1978e-02  6.9421e-05  0:02:47 1560

  iter  continuity  x-velocity  y-velocity  z-velocity      energy     time/iter
   441  6.0344e-05  1.3171e-03  4.1678e-05  4.7606e-02  6.0179e-05  0:02:13 1559
   442  5.3011e-05  1.3016e-03  3.9148e-05  5.0135e-02  5.2831e-05  0:01:47 1558
   443  4.5897e-05  1.2950e-03  3.7276e-05  5.8821e-02  4.5631e-05  0:01:25 1557
   444  4.5375e-05  1.2905e-03  3.7322e-05  7.4889e-02  4.5051e-05  0:01:08 1556
   445  4.2086e-05  1.2735e-03  3.7348e-05  9.8297e-02  4.1686e-05  0:00:54 1555
   446  4.7871e-05  1.2658e-03  3.6721e-05  1.1276e-01  4.7500e-05  0:00:44 1554
   447  5.5384e-05  1.2589e-03  3.5942e-05  1.1943e-01  5.5061e-05  0:00:35 1553
   448  6.3357e-05  1.2540e-03  3.5525e-05  1.1364e-01  6.3073e-05  0:00:28 1552
   449  7.1140e-05  1.2373e-03  3.2807e-05  1.0838e-01  7.0932e-05  0:00:22 1551
   450  8.0043e-05  1.2222e-03  3.1944e-05  7.4268e-02  7.9871e-05  0:00:18 1550
   451  8.7117e-05  1.2073e-03  3.1847e-05  5.6151e-02  8.6962e-05  0:00:14 1549

  iter  continuity  x-velocity  y-velocity  z-velocity      energy     time/iter
   452  9.3008e-05  1.1950e-03  3.2462e-05  7.8612e-02  9.2824e-05  0:05:21 1548
   453  9.8280e-05  1.1876e-03  3.3834e-05  9.7212e-02  9.8044e-05  0:04:17 1547
   454  1.0256e-04  1.1835e-03  3.6611e-05  1.0406e-01  1.0228e-04  0:03:25 1546
   455  1.0574e-04  1.1831e-03  4.0089e-05  1.0162e-01  1.0543e-04  0:02:44 1545
   456  1.0791e-04  1.1858e-03  4.3718e-05  9.3403e-02  1.0758e-04  0:02:11 1544
   457  1.0877e-04  1.1860e-03  4.7259e-05  8.1879e-02  1.0845e-04  0:01:45 1543
   458  1.0770e-04  1.1855e-03  4.9144e-05  6.9606e-02  1.0738e-04  0:01:24 1542
   459  1.0544e-04  1.1848e-03  4.9302e-05  5.8634e-02  1.0511e-04  0:01:07 1541
   460  1.0211e-04  1.1830e-03  4.8892e-05  5.0158e-02  1.0175e-04  0:00:54 1540
   461  9.7751e-05  1.1795e-03  4.8186e-05  4.3926e-02  9.7373e-05  0:00:43 1539
   462  9.2470e-05  1.1741e-03  4.7122e-05  3.9603e-02  9.2073e-05  0:00:34 1538

  iter  continuity  x-velocity  y-velocity  z-velocity      energy     time/iter
   463  8.6269e-05  1.1663e-03  4.5852e-05  3.5907e-02  8.5857e-05  0:00:27 1537
   464  7.9308e-05  1.1563e-03  4.4507e-05  3.9670e-02  7.8874e-05  0:05:29 1536
   465  7.1760e-05  1.1447e-03  4.2920e-05  4.0239e-02  7.1300e-05  0:04:23 1535
   466  6.3818e-05  1.1323e-03  4.1163e-05  3.8025e-02  6.3318e-05  0:03:30 1534
   467  5.5712e-05  1.1197e-03  3.9160e-05  3.7197e-02  5.5172e-05  0:02:48 1533
   468  4.7678e-05  1.1072e-03  3.7092e-05  3.4295e-02  4.7091e-05  0:02:14 1532
   469  4.0076e-05  1.0943e-03  3.5057e-05  3.1651e-02  3.9436e-05  0:01:47 1531
   470  3.3944e-05  1.0822e-03  3.3017e-05  3.2513e-02  3.3223e-05  0:01:26 1530
   471  2.9823e-05  1.0711e-03  3.1192e-05  3.2685e-02  2.9020e-05  0:01:09 1529
   472  2.8290e-05  1.0610e-03  2.9636e-05  3.1914e-02  2.7484e-05  0:00:55 1528
   473  3.0037e-05  1.0527e-03  2.8531e-05  3.2779e-02  2.9314e-05  0:00:44 1527

  iter  continuity  x-velocity  y-velocity  z-velocity      energy     time/iter
   474  3.3875e-05  1.0440e-03  2.7739e-05  3.3988e-02  3.3259e-05  0:00:35 1526
   475  3.7888e-05  1.0323e-03  2.6471e-05  3.0585e-02  3.7337e-05  0:00:28 1525
   476  4.2846e-05  1.0210e-03  2.4655e-05  2.5202e-02  4.2347e-05  0:00:22 1524
   477  4.8087e-05  1.0102e-03  2.3544e-05  2.7210e-02  4.7639e-05  0:05:23 1523
   478  5.3288e-05  9.9998e-04  2.3263e-05  3.2443e-02  5.2891e-05  0:04:18 1522
   479  5.8277e-05  9.9055e-04  2.3512e-05  3.5639e-02  5.7925e-05  0:03:26 1521
   480  6.2831e-05  9.8203e-04  2.4026e-05  3.8018e-02  6.2514e-05  0:02:45 1520
   481  6.6574e-05  9.7410e-04  2.4215e-05  4.5471e-02  6.6287e-05  0:02:12 1519
   482  6.9640e-05  9.6712e-04  2.4510e-05  4.6070e-02  6.9383e-05  0:01:45 1518
   483  7.0702e-05  9.5719e-04  2.5185e-05  4.0051e-02  7.0503e-05  0:01:24 1517
   484  7.1418e-05  9.4797e-04  2.5295e-05  3.0317e-02  7.1256e-05  0:01:07 1516

  iter  continuity  x-velocity  y-velocity  z-velocity      energy     time/iter
   485  7.1810e-05  9.4038e-04  2.5423e-05  2.3365e-02  7.1658e-05  0:00:54 1515
   486  7.1661e-05  9.3364e-04  2.5753e-05  3.9525e-02  7.1511e-05  0:00:43 1514
   487  7.0855e-05  9.2713e-04  2.6086e-05  7.5264e-02  7.0707e-05  0:00:34 1513
   488  6.9336e-05  9.2074e-04  2.6390e-05  9.8803e-02  6.9189e-05  0:00:28 1512
   489  6.7088e-05  9.1478e-04  2.6593e-05  1.1379e-01  6.6953e-05  0:00:22 1511
   490  6.3908e-05  9.0977e-04  2.6317e-05  1.1881e-01  6.3791e-05  0:00:18 1510
   491  5.9761e-05  9.0317e-04  2.6175e-05  1.0222e-01  5.9666e-05  0:05:16 1509
   492  5.5091e-05  8.9525e-04  2.5699e-05  4.9933e-02  5.5004e-05  0:04:13 1508
   493  5.0022e-05  8.8509e-04  2.4921e-05  5.8253e-02  4.9931e-05  0:03:22 1507
   494  4.5471e-05  8.7723e-04  2.4201e-05  8.5112e-02  4.5370e-05  0:02:41 1506
   495  4.0805e-05  8.7038e-04  2.3516e-05  9.8854e-02  4.0694e-05  0:02:09 1505

  iter  continuity  x-velocity  y-velocity  z-velocity      energy     time/iter
   496  3.5824e-05  8.6360e-04  2.2713e-05  9.9870e-02  3.5706e-05  0:01:43 1504
   497  3.0635e-05  8.5631e-04  2.1831e-05  9.9809e-02  3.0506e-05  0:01:22 1503
   498  2.5895e-05  8.4893e-04  2.0775e-05  9.7625e-02  2.5752e-05  0:01:06 1502
   499  2.1907e-05  8.4156e-04  1.9645e-05  8.5648e-02  2.1745e-05  0:00:53 1501
   500  1.9459e-05  8.3459e-04  1.8517e-05  7.0596e-02  1.9268e-05  0:00:42 1500
   501  1.9019e-05  8.2851e-04  1.7459e-05  5.4953e-02  1.8780e-05  0:00:34 1499
   502  2.0770e-05  8.2299e-04  1.6654e-05  4.1600e-02  2.0525e-05  0:00:27 1498
   503  2.3801e-05  8.1844e-04  1.6109e-05  3.1682e-02  2.3547e-05  0:00:22 1497
   504  2.7636e-05  8.1464e-04  1.5867e-05  2.5995e-02  2.7389e-05  0:00:17 1496
   505  3.1685e-05  8.1143e-04  1.5920e-05  2.3335e-02  3.1453e-05  0:05:13 1495
   506  3.5636e-05  8.0872e-04  1.6182e-05  2.2821e-02  3.5419e-05  0:04:10 1494

  iter  continuity  x-velocity  y-velocity  z-velocity      energy     time/iter
   507  3.9320e-05  8.0636e-04  1.6596e-05  2.3167e-02  3.9115e-05  0:03:20 1493
   508  4.2464e-05  8.0410e-04  1.7110e-05  2.5569e-02  4.2286e-05  0:02:40 1492
   509  4.5181e-05  8.0218e-04  1.7644e-05  2.7830e-02  4.5022e-05  0:02:08 1491
   510  4.7526e-05  8.0101e-04  1.8271e-05  2.8891e-02  4.7371e-05  0:01:42 1490
   511  4.9455e-05  7.9991e-04  1.9068e-05  2.5348e-02  4.9304e-05  0:01:22 1489
   512  5.1020e-05  7.9827e-04  1.9720e-05  2.3972e-02  5.0873e-05  0:01:05 1488
   513  5.2093e-05  7.9636e-04  2.0440e-05  2.7946e-02  5.1943e-05  0:00:52 1487
   514  5.2455e-05  7.9403e-04  2.1020e-05  3.2996e-02  5.2308e-05  0:00:42 1486
   515  5.2076e-05  7.9127e-04  2.1431e-05  3.7542e-02  5.1929e-05  0:00:33 1485
   516  5.0940e-05  7.8807e-04  2.1778e-05  4.2470e-02  5.0784e-05  0:00:27 1484
   517  4.8982e-05  7.8410e-04  2.1972e-05  4.4434e-02  4.8805e-05  0:00:21 1483

  iter  continuity  x-velocity  y-velocity  z-velocity      energy     time/iter
   518  4.6655e-05  7.8079e-04  2.1855e-05  5.5168e-02  4.6452e-05  0:00:17 1482
   519  4.4124e-05  7.7978e-04  2.1555e-05  7.6439e-02  4.3898e-05  0:05:10 1481
   520  4.1309e-05  7.8033e-04  2.1152e-05  1.0025e-01  4.1070e-05  0:04:08 1480
   521  3.7682e-05  7.7237e-04  2.0380e-05  1.0565e-01  3.7445e-05  0:03:18 1479
   522  3.3257e-05  7.6038e-04  1.9089e-05  7.4958e-02  3.3018e-05  0:02:38 1478
   523  2.9745e-05  7.5127e-04  1.7949e-05  5.3511e-02  2.9502e-05  0:02:07 1477
   524  2.6171e-05  7.4295e-04  1.7099e-05  4.0577e-02  2.5916e-05  0:01:41 1476
   525  2.2553e-05  7.3502e-04  1.6277e-05  3.6212e-02  2.2278e-05  0:01:21 1475
   526  1.9076e-05  7.2743e-04  1.5435e-05  3.5761e-02  1.8778e-05  0:01:05 1474
   527  1.6007e-05  7.2014e-04  1.4595e-05  3.5664e-02  1.5685e-05  0:00:52 1473
   528  1.3780e-05  7.1318e-04  1.3797e-05  3.4588e-02  1.3442e-05  0:00:41 1472

  iter  continuity  x-velocity  y-velocity  z-velocity      energy     time/iter
   529  1.2781e-05  7.0644e-04  1.3072e-05  3.3400e-02  1.2452e-05  0:00:33 1471
   530  1.2829e-05  6.9975e-04  1.2462e-05  3.1834e-02  1.2513e-05  0:00:26 1470
   531  1.4191e-05  6.9326e-04  1.1863e-05  2.9971e-02  1.3901e-05  0:00:21 1469
   532  1.6580e-05  6.8702e-04  1.1385e-05  2.9717e-02  1.6336e-05  0:00:17 1468
   533  1.9329e-05  6.8105e-04  1.1079e-05  3.1879e-02  1.9132e-05  0:00:13 1467
   534  2.2218e-05  6.7534e-04  1.0988e-05  3.9325e-02  2.2055e-05  0:05:04 1466
   535  2.5081e-05  6.6994e-04  1.1106e-05  5.3824e-02  2.4934e-05  0:04:03 1465
   536  2.7593e-05  6.6478e-04  1.1277e-05  6.3602e-02  2.7457e-05  0:03:14 1464
   537  2.9679e-05  6.5994e-04  1.1365e-05  6.8347e-02  2.9566e-05  0:02:35 1463
   538  3.1377e-05  6.5552e-04  1.1518e-05  6.9130e-02  3.1287e-05  0:02:04 1462
   539  3.2669e-05  6.5144e-04  1.1784e-05  6.8370e-02  3.2588e-05  0:01:39 1461

  iter  continuity  x-velocity  y-velocity  z-velocity      energy     time/iter
   540  3.2913e-05  6.4593e-04  1.1998e-05  5.9467e-02  3.2834e-05  0:01:19 1460
   541  3.2834e-05  6.3910e-04  1.1886e-05  3.1182e-02  3.2759e-05  0:01:03 1459
   542  3.2939e-05  6.3298e-04  1.1670e-05  4.2573e-02  3.2880e-05  0:00:51 1458
   543  3.2786e-05  6.2806e-04  1.1713e-05  6.2722e-02  3.2736e-05  0:00:41 1457
   544  3.2270e-05  6.2399e-04  1.1900e-05  7.1361e-02  3.2231e-05  0:00:32 1456
   545  3.1349e-05  6.2046e-04  1.2062e-05  7.0558e-02  3.1317e-05  0:00:26 1455
   546  3.0082e-05  6.1731e-04  1.2131e-05  6.5012e-02  3.0054e-05  0:00:21 1454
   547  2.8534e-05  6.1454e-04  1.2081e-05  5.6597e-02  2.8503e-05  0:00:17 1453
   548  2.6525e-05  6.1181e-04  1.1956e-05  4.7067e-02  2.6497e-05  0:05:04 1452
   549  2.4201e-05  6.0907e-04  1.1700e-05  3.8555e-02  2.4185e-05  0:04:03 1451
   550  2.1840e-05  6.0671e-04  1.1386e-05  3.1917e-02  2.1823e-05  0:03:14 1450

  iter  continuity  x-velocity  y-velocity  z-velocity      energy     time/iter
   551  1.9394e-05  6.0445e-04  1.1182e-05  2.7135e-02  1.9358e-05  0:02:35 1449
   552  1.6914e-05  6.0245e-04  1.1013e-05  2.6760e-02  1.6846e-05  0:02:04 1448
   553  1.4439e-05  6.0049e-04  1.0777e-05  2.7684e-02  1.4327e-05  0:01:39 1447
   554  1.2021e-05  5.9833e-04  1.0446e-05  2.8466e-02  1.1850e-05  0:01:19 1446
   555  9.8289e-06  5.9608e-04  9.8943e-06  2.8990e-02  9.6003e-06  0:01:03 1445
   556  8.1011e-06  5.9387e-04  9.3019e-06  2.9108e-02  7.8298e-06  0:00:51 1444
   557  7.3504e-06  5.9170e-04  8.9146e-06  2.8862e-02  7.0566e-06  0:00:41 1443
   558  7.7501e-06  5.8954e-04  8.6397e-06  2.8053e-02  7.4730e-06  0:00:32 1442
   559  8.9968e-06  5.8716e-04  8.4114e-06  2.7117e-02  8.7474e-06  0:00:26 1441
   560  1.0758e-05  5.8457e-04  8.2185e-06  2.6371e-02  1.0536e-05  0:00:21 1440
   561  1.2620e-05  5.8195e-04  8.1220e-06  2.5604e-02  1.2424e-05  0:00:17 1439

  iter  continuity  x-velocity  y-velocity  z-velocity      energy     time/iter
   562  1.4446e-05  5.7928e-04  8.0642e-06  2.4976e-02  1.4273e-05  0:05:01 1438
   563  1.6155e-05  5.7656e-04  8.0545e-06  2.7922e-02  1.6001e-05  0:04:00 1437
   564  1.7707e-05  5.7378e-04  8.0979e-06  3.8506e-02  1.7565e-05  0:03:12 1436
   565  1.9071e-05  5.7103e-04  8.1856e-06  5.0315e-02  1.8939e-05  0:02:34 1435
   566  2.0226e-05  5.6825e-04  8.3083e-06  6.0632e-02  2.0099e-05  0:02:03 1434
   567  2.1142e-05  5.6546e-04  8.4327e-06  7.0679e-02  2.1021e-05  0:01:38 1433
   568  2.1812e-05  5.6261e-04  8.5445e-06  7.0998e-02  2.1698e-05  0:01:19 1432
   569  2.2226e-05  5.5983e-04  8.6515e-06  6.7641e-02  2.2112e-05  0:01:03 1431
   570  2.2384e-05  5.5689e-04  8.7365e-06  6.1210e-02  2.2276e-05  0:00:50 1430
   571  2.2348e-05  5.5375e-04  8.8363e-06  5.3336e-02  2.2251e-05  0:00:40 1429
   572  2.2264e-05  5.5063e-04  8.9831e-06  4.6420e-02  2.2175e-05  0:00:32 1428

  iter  continuity  x-velocity  y-velocity  z-velocity      energy     time/iter
   573  2.1992e-05  5.4767e-04  9.2227e-06  4.1719e-02  2.1901e-05  0:00:26 1427
   574  2.1454e-05  5.4528e-04  9.2557e-06  3.8684e-02  2.1372e-05  0:00:21 1426
   575  2.0732e-05  5.4300e-04  9.3166e-06  3.7101e-02  2.0652e-05  0:00:16 1425
   576  1.9859e-05  5.4089e-04  9.3715e-06  3.6302e-02  1.9776e-05  0:04:58 1424
   577  1.8860e-05  5.3896e-04  9.3704e-06  3.6048e-02  1.8770e-05  0:03:58 1423
   578  1.7235e-05  5.3622e-04  9.2723e-06  3.4325e-02  1.7134e-05  0:03:10 1422
   579  1.5025e-05  5.3238e-04  8.9225e-06  3.0813e-02  1.4917e-05  0:02:32 1421
   580  1.2834e-05  5.2821e-04  8.3987e-06  3.1493e-02  1.2726e-05  0:02:02 1420
   581  1.0944e-05  5.2422e-04  7.9914e-06  3.5945e-02  1.0830e-05  0:01:37 1419
   582  9.8022e-06  5.2212e-04  8.1776e-06  3.9929e-02  9.6569e-06  0:01:18 1418
   583  9.0118e-06  5.1911e-04  7.5345e-06  4.1996e-02  8.8703e-06  0:01:02 1417

  iter  continuity  x-velocity  y-velocity  z-velocity      energy     time/iter
   584  7.9054e-06  5.1528e-04  6.8180e-06  4.2239e-02  7.7774e-06  0:00:50 1416
   585  6.9464e-06  5.1138e-04  6.4458e-06  4.1264e-02  6.8452e-06  0:00:40 1415
   586  6.5383e-06  5.0772e-04  6.2693e-06  3.9673e-02  6.4577e-06  0:00:32 1414
   587  6.7425e-06  5.0424e-04  6.1433e-06  3.7986e-02  6.6745e-06  0:00:25 1413
   588  7.3751e-06  5.0092e-04  6.0211e-06  3.6737e-02  7.3127e-06  0:00:20 1412
   589  8.3363e-06  4.9767e-04  5.9105e-06  3.6147e-02  8.2764e-06  0:00:16 1411
   590  9.2928e-06  4.9407e-04  5.8247e-06  3.6159e-02  9.2378e-06  0:04:55 1410
   591  1.0299e-05  4.9027e-04  5.6967e-06  3.7228e-02  1.0250e-05  0:03:56 1409
   592  1.1371e-05  4.8681e-04  5.5953e-06  3.8923e-02  1.1327e-05  0:03:09 1408
   593  1.2359e-05  4.8357e-04  5.6181e-06  4.0942e-02  1.2319e-05  0:02:31 1407
   594  1.3211e-05  4.8041e-04  5.7021e-06  4.3032e-02  1.3173e-05  0:02:00 1406

  iter  continuity  x-velocity  y-velocity  z-velocity      energy     time/iter
   595  1.3928e-05  4.7738e-04  5.8016e-06  4.4932e-02  1.3890e-05  0:01:36 1405
   596  1.4485e-05  4.7451e-04  5.9214e-06  4.6678e-02  1.4447e-05  0:01:17 1404
   597  1.4863e-05  4.7171e-04  6.0256e-06  4.7965e-02  1.4827e-05  0:01:02 1403
   598  1.5059e-05  4.6895e-04  6.0670e-06  4.8755e-02  1.5027e-05  0:00:49 1402
   599  1.5088e-05  4.6623e-04  6.1497e-06  4.9554e-02  1.5060e-05  0:00:39 1401
   600  1.4962e-05  4.6354e-04  6.2399e-06  5.1580e-02  1.4936e-05  0:00:31 1400
   601  1.4701e-05  4.6087e-04  6.3157e-06  5.5239e-02  1.4674e-05  0:00:25 1399
   602  1.4347e-05  4.5827e-04  6.3872e-06  5.6380e-02  1.4317e-05  0:00:20 1398
   603  1.3979e-05  4.5583e-04  6.4533e-06  5.5102e-02  1.3942e-05  0:00:16 1397
   604  1.3639e-05  4.5374e-04  6.5379e-06  5.5062e-02  1.3596e-05  0:04:52 1396
   605  1.3172e-05  4.5206e-04  6.6398e-06  5.7383e-02  1.3128e-05  0:03:53 1395

  iter  continuity  x-velocity  y-velocity  z-velocity      energy     time/iter
   606  1.2613e-05  4.5076e-04  6.7221e-06  6.0071e-02  1.2567e-05  0:03:07 1394
   607  1.2029e-05  4.4986e-04  6.7719e-06  6.2411e-02  1.1982e-05  0:02:29 1393
   608  1.1486e-05  4.4947e-04  6.8023e-06  6.4004e-02  1.1439e-05  0:01:59 1392
   609  1.0867e-05  4.4939e-04  6.8304e-06  6.5070e-02  1.0822e-05  0:01:35 1391
   610  8.8607e-06  4.4713e-04  6.8175e-06  6.4428e-02  8.8250e-06  0:01:16 1390
   611  6.4673e-06  4.4279e-04  6.3430e-06  6.4613e-02  6.4436e-06  0:01:01 1389
   612  5.1765e-06  4.3824e-04  5.6309e-06  6.3871e-02  5.1542e-06  0:00:49 1388
   613  4.8675e-06  4.3413e-04  5.1984e-06  6.3735e-02  4.8226e-06  0:00:39 1387
   614  4.9397e-06  4.3040e-04  5.0317e-06  6.4375e-02  4.8662e-06  0:00:31 1386
   615  5.1736e-06  4.2693e-04  4.9361e-06  6.5749e-02  5.0798e-06  0:00:25 1385
   616  5.5530e-06  4.2362e-04  4.8498e-06  6.6538e-02  5.4484e-06  0:00:20 1384

  iter  continuity  x-velocity  y-velocity  z-velocity      energy     time/iter
   617  6.0725e-06  4.2024e-04  4.7728e-06  6.7766e-02  5.9683e-06  0:00:16 1383
   618  6.6793e-06  4.1699e-04  4.6718e-06  7.1145e-02  6.5849e-06  0:04:49 1382
   619  7.3625e-06  4.1390e-04  4.5985e-06  7.7160e-02  7.2789e-06  0:03:51 1381
   620  8.0718e-06  4.1101e-04  4.5692e-06  7.3966e-02  8.0008e-06  0:03:05 1380
   621  8.6944e-06  4.0828e-04  4.5956e-06  6.8896e-02  8.6319e-06  0:02:28 1379
   622  9.0862e-06  4.0566e-04  4.6573e-06  6.7980e-02  9.0301e-06  0:01:58 1378
   623  9.3403e-06  4.0303e-04  4.6818e-06  7.0670e-02  9.2898e-06  0:01:34 1377
   624  9.6041e-06  4.0037e-04  4.6690e-06  7.5336e-02  9.5562e-06  0:01:15 1376
   625  9.8010e-06  3.9771e-04  4.6828e-06  8.7831e-02  9.7528e-06  0:01:00 1375
   626  9.9066e-06  3.9506e-04  4.7036e-06  1.0941e-01  9.8566e-06  0:00:48 1374
   627  9.9144e-06  3.9241e-04  4.7148e-06  1.2984e-01  9.8623e-06  0:00:39 1373

  iter  continuity  x-velocity  y-velocity  z-velocity      energy     time/iter
   628  9.8214e-06  3.8977e-04  4.7083e-06  1.4050e-01  9.7678e-06  0:00:31 1372
   629  9.6284e-06  3.8714e-04  4.6882e-06  1.3276e-01  9.5744e-06  0:00:25 1371
   630  9.3390e-06  3.8452e-04  4.6595e-06  1.1080e-01  9.2849e-06  0:00:20 1370
   631  8.9583e-06  3.8189e-04  4.6209e-06  8.7649e-02  8.9036e-06  0:00:16 1369
   632  8.4938e-06  3.7924e-04  4.5703e-06  7.5918e-02  8.4379e-06  0:04:46 1368
   633  7.9558e-06  3.7656e-04  4.5087e-06  8.1507e-02  7.8979e-06  0:03:49 1367
   634  7.3607e-06  3.7385e-04  4.4387e-06  9.4544e-02  7.2987e-06  0:03:03 1366
   635  6.7227e-06  3.7113e-04  4.3566e-06  1.0637e-01  6.6549e-06  0:02:26 1365
   636  6.0633e-06  3.6842e-04  4.2608e-06  1.1313e-01  5.9888e-06  0:01:57 1364
   637  5.2160e-06  3.6527e-04  4.1422e-06  1.1376e-01  5.1366e-06  0:01:33 1363
   638  4.5402e-06  3.6212e-04  3.9653e-06  1.0867e-01  4.4592e-06  0:01:15 1362

  iter  continuity  x-velocity  y-velocity  z-velocity      energy     time/iter
   639  4.0230e-06  3.5920e-04  3.8697e-06  9.8647e-02  3.9401e-06  0:01:00 1361
   640  3.6039e-06  3.5639e-04  3.7846e-06  8.8070e-02  3.5262e-06  0:00:48 1360
   641  3.4353e-06  3.5365e-04  3.7748e-06  8.2150e-02  3.3664e-06  0:00:38 1359
   642  3.5578e-06  3.5094e-04  3.7726e-06  8.3327e-02  3.5032e-06  0:00:31 1358
   643  3.9854e-06  3.4831e-04  3.7727e-06  8.8536e-02  3.9499e-06  0:00:24 1357
   644  4.6429e-06  3.4580e-04  3.8283e-06  9.4920e-02  4.6223e-06  0:00:19 1356
   645  5.3558e-06  3.4340e-04  3.9401e-06  1.0128e-01  5.3451e-06  0:00:16 1355
   646  6.0212e-06  3.4110e-04  4.0745e-06  1.0534e-01  6.0162e-06  0:00:12 1354
   647  6.6682e-06  3.3894e-04  4.1939e-06  1.0690e-01  6.6662e-06  0:04:41 1353
   648  7.3083e-06  3.3694e-04  4.2861e-06  1.0735e-01  7.3084e-06  0:03:44 1352
   649  7.9326e-06  3.3507e-04  4.3584e-06  1.0771e-01  7.9362e-06  0:02:59 1351

  iter  continuity  x-velocity  y-velocity  z-velocity      energy     time/iter
   650  8.5298e-06  3.3304e-04  4.4147e-06  1.0842e-01  8.5416e-06  0:02:23 1350
   651  9.1993e-06  3.3143e-04  4.4975e-06  1.1002e-01  9.2160e-06  0:01:55 1349
   652  1.0032e-05  3.3028e-04  4.7587e-06  1.1139e-01  1.0053e-05  0:01:32 1348
   653  9.9283e-06  3.2808e-04  5.0407e-06  1.1295e-01  9.9549e-06  0:01:13 1347
   654  8.7559e-06  3.2337e-04  5.2444e-06  1.0246e-01  8.7811e-06  0:00:59 1346
   655  7.5838e-06  3.1724e-04  4.9155e-06  9.2067e-02  7.5993e-06  0:00:47 1345
   656  7.0904e-06  3.1131e-04  4.1531e-06  1.0085e-01  7.0911e-06  0:00:37 1344
   657  6.9860e-06  3.0619e-04  3.5046e-06  1.1951e-01  6.9752e-06  0:00:30 1343
   658  6.8863e-06  3.0183e-04  3.2398e-06  1.3421e-01  6.8687e-06  0:00:24 1342
   659  6.6785e-06  2.9800e-04  3.2184e-06  1.4094e-01  6.6564e-06  0:00:19 1341
   660  6.3786e-06  2.9456e-04  3.2295e-06  1.4024e-01  6.3516e-06  0:00:15 1340

  iter  continuity  x-velocity  y-velocity  z-velocity      energy     time/iter
   661  6.0927e-06  2.9142e-04  3.1877e-06  1.3464e-01  6.0600e-06  0:04:40 1339
   662  5.8456e-06  2.8848e-04  3.1496e-06  1.2780e-01  5.8110e-06  0:03:44 1338
   663  5.5615e-06  2.8572e-04  3.1409e-06  1.2337e-01  5.5230e-06  0:02:59 1337
   664  5.2149e-06  2.8303e-04  3.1244e-06  1.1813e-01  5.1708e-06  0:02:23 1336
   665  4.8235e-06  2.8041e-04  3.1156e-06  1.1145e-01  4.7709e-06  0:01:54 1335
   666  4.3962e-06  2.7787e-04  3.0977e-06  1.0510e-01  4.3288e-06  0:01:31 1334
   667  3.9869e-06  2.7538e-04  3.0442e-06  1.0019e-01  3.8986e-06  0:01:13 1333
   668  3.6525e-06  2.7293e-04  2.9712e-06  9.7073e-02  3.5385e-06  0:00:58 1332
   669  3.4266e-06  2.7049e-04  2.8931e-06  9.5010e-02  3.2863e-06  0:00:47 1331
   670  3.3136e-06  2.6806e-04  2.8142e-06  9.4054e-02  3.1504e-06  0:00:37 1330
   671  3.2811e-06  2.6558e-04  2.7212e-06  9.3721e-02  3.1030e-06  0:00:30 1329

  iter  continuity  x-velocity  y-velocity  z-velocity      energy     time/iter
   672  3.3331e-06  2.6307e-04  2.6363e-06  9.3378e-02  3.1516e-06  0:00:24 1328
   673  3.4354e-06  2.6059e-04  2.5533e-06  9.3112e-02  3.2566e-06  0:00:19 1327
   674  3.5937e-06  2.5817e-04  2.4759e-06  9.2703e-02  3.4212e-06  0:00:15 1326
   675  3.7930e-06  2.5588e-04  2.4226e-06  9.2238e-02  3.6320e-06  0:00:12 1325
   676  3.9651e-06  2.5359e-04  2.4732e-06  9.1796e-02  3.8150e-06  0:04:35 1324
   677  4.1479e-06  2.5131e-04  2.4906e-06  9.1422e-02  4.0075e-06  0:03:39 1323
   678  4.3513e-06  2.4908e-04  2.4469e-06  9.1180e-02  4.2185e-06  0:02:55 1322
   679  4.5282e-06  2.4691e-04  2.3914e-06  9.0906e-02  4.4011e-06  0:02:20 1321
   680  4.6606e-06  2.4477e-04  2.3625e-06  9.0604e-02  4.5364e-06  0:01:52 1320
   681  4.7274e-06  2.4260e-04  2.3533e-06  9.0262e-02  4.6043e-06  0:01:30 1319
   682  4.7061e-06  2.4010e-04  2.3404e-06  8.9920e-02  4.5916e-06  0:01:12 1318

  iter  continuity  x-velocity  y-velocity  z-velocity      energy     time/iter
   683  4.6889e-06  2.3768e-04  2.2619e-06  8.9542e-02  4.5816e-06  0:00:57 1317
   684  4.6270e-06  2.3531e-04  2.2221e-06  8.9201e-02  4.5238e-06  0:00:46 1316
   685  4.5199e-06  2.3300e-04  2.2021e-06  8.8928e-02  4.4186e-06  0:00:37 1315
   686  4.3692e-06  2.3073e-04  2.1825e-06  8.8707e-02  4.2680e-06  0:00:29 1314
   687  4.1748e-06  2.2850e-04  2.1503e-06  8.8497e-02  4.0724e-06  0:04:46 1313
   688  3.9446e-06  2.2630e-04  2.1098e-06  8.8241e-02  3.8402e-06  0:03:49 1312
   689  3.6885e-06  2.2411e-04  2.0770e-06  8.7895e-02  3.5818e-06  0:03:03 1311
   690  3.4083e-06  2.2193e-04  2.0429e-06  8.7462e-02  3.2979e-06  0:02:26 1310
   691  3.1113e-06  2.1977e-04  2.0040e-06  8.7006e-02  2.9958e-06  0:01:57 1309
   692  2.8072e-06  2.1763e-04  1.9637e-06  8.6588e-02  2.6846e-06  0:01:33 1308
   693  2.5086e-06  2.1551e-04  1.9213e-06  8.6225e-02  2.3770e-06  0:01:15 1307

  iter  continuity  x-velocity  y-velocity  z-velocity      energy     time/iter
   694  2.2314e-06  2.1340e-04  1.8759e-06  8.5900e-02  2.0892e-06  0:01:00 1306
   695  1.9944e-06  2.1131e-04  1.8310e-06  8.5586e-02  1.8416e-06  0:00:48 1305
   696  1.8252e-06  2.0923e-04  1.7885e-06  8.5274e-02  1.6646e-06  0:00:38 1304
   697  1.7425e-06  2.0718e-04  1.7495e-06  8.4965e-02  1.5807e-06  0:00:30 1303
   698  1.7548e-06  2.0515e-04  1.7145e-06  8.4673e-02  1.6006e-06  0:00:24 1302
   699  1.8497e-06  2.0317e-04  1.7026e-06  8.4408e-02  1.7106e-06  0:00:19 1301
   700  2.0900e-06  2.0164e-04  1.8227e-06  8.4161e-02  1.9754e-06  0:00:16 1300
   701  2.3227e-06  2.0038e-04  1.8954e-06  8.3931e-02  2.2162e-06  0:00:12 1299
   702  2.4889e-06  1.9884e-04  1.8605e-06  8.3719e-02  2.3821e-06  0:04:30 1298
   703  2.6656e-06  1.9692e-04  1.7390e-06  8.3528e-02  2.5626e-06  0:03:35 1297
   704  2.8722e-06  1.9495e-04  1.6134e-06  8.3353e-02  2.7797e-06  0:02:52 1296

  iter  continuity  x-velocity  y-velocity  z-velocity      energy     time/iter
   705  3.0667e-06  1.9311e-04  1.5891e-06  8.3196e-02  2.9872e-06  0:02:18 1295
   706  3.2696e-06  1.9168e-04  1.7300e-06  8.3084e-02  3.2020e-06  0:01:50 1294
   707  3.4232e-06  1.9054e-04  1.8814e-06  8.2977e-02  3.3596e-06  0:01:28 1293
   708  3.5115e-06  1.8930e-04  1.9493e-06  8.2931e-02  3.4464e-06  0:01:10 1292
   709  3.5393e-06  1.8738e-04  1.9161e-06  8.2829e-02  3.4730e-06  0:00:56 1291
   710  3.5531e-06  1.8536e-04  1.8016e-06  8.3352e-02  3.4876e-06  0:00:45 1290
   711  3.5452e-06  1.8343e-04  1.7349e-06  8.4205e-02  3.4840e-06  0:00:36 1289
   712  3.5089e-06  1.8167e-04  1.7458e-06  8.6434e-02  3.4522e-06  0:00:29 1288
   713  3.4169e-06  1.8000e-04  1.8005e-06  8.8697e-02  3.3618e-06  0:00:23 1287
   714  3.2891e-06  1.7831e-04  1.8418e-06  8.8936e-02  3.2330e-06  0:00:18 1286
   715  3.1447e-06  1.7654e-04  1.8592e-06  8.7633e-02  3.0863e-06  0:00:15 1285

  iter  continuity  x-velocity  y-velocity  z-velocity      energy     time/iter
   716  2.9640e-06  1.7471e-04  1.8166e-06  8.6481e-02  2.9019e-06  0:04:29 1284
   717  2.7725e-06  1.7293e-04  1.7772e-06  8.6625e-02  2.7056e-06  0:03:35 1283
   718  2.5618e-06  1.7105e-04  1.7901e-06  8.6281e-02  2.4882e-06  0:02:52 1282
   719  2.3564e-06  1.6925e-04  1.8016e-06  8.5216e-02  2.2740e-06  0:02:17 1281
   720  2.1651e-06  1.6759e-04  1.7783e-06  8.3760e-02  2.0739e-06  0:01:50 1280
   721  1.9683e-06  1.6587e-04  1.6839e-06  8.2676e-02  1.8695e-06  0:01:28 1279
   722  1.8259e-06  1.6422e-04  1.6218e-06  8.2280e-02  1.7233e-06  0:01:10 1278
   723  1.7029e-06  1.6237e-04  1.6093e-06  8.2044e-02  1.5961e-06  0:00:56 1277
   724  1.6326e-06  1.6049e-04  1.6147e-06  8.1831e-02  1.5225e-06  0:00:45 1276
   725  1.5851e-06  1.5860e-04  1.5824e-06  8.2115e-02  1.4726e-06  0:00:36 1275
   726  1.6253e-06  1.5673e-04  1.5238e-06  8.2645e-02  1.5166e-06  0:00:29 1274

  iter  continuity  x-velocity  y-velocity  z-velocity      energy     time/iter
   727  1.7213e-06  1.5506e-04  1.4741e-06  8.2668e-02  1.6206e-06  0:00:23 1273
   728  1.8432e-06  1.5354e-04  1.4773e-06  8.2343e-02  1.7501e-06  0:00:18 1272
   729  1.9643e-06  1.5208e-04  1.4981e-06  8.1862e-02  1.8769e-06  0:00:15 1271
   730  2.0765e-06  1.5053e-04  1.5091e-06  8.1301e-02  1.9927e-06  0:04:26 1270
   731  2.2018e-06  1.4899e-04  1.4926e-06  8.0720e-02  2.1210e-06  0:03:32 1269
   732  2.3287e-06  1.4751e-04  1.4664e-06  8.0102e-02  2.2502e-06  0:02:50 1268
   733  2.4451e-06  1.4606e-04  1.4436e-06  7.9501e-02  2.3681e-06  0:02:16 1267
   734  2.5448e-06  1.4463e-04  1.4354e-06  7.8878e-02  2.4687e-06  0:01:48 1266
   735  2.6251e-06  1.4326e-04  1.4580e-06  7.8212e-02  2.5503e-06  0:01:27 1265
   736  2.6877e-06  1.4192e-04  1.4873e-06  7.7514e-02  2.6130e-06  0:01:09 1264
   737  2.7264e-06  1.4058e-04  1.5130e-06  7.6766e-02  2.6515e-06  0:00:55 1263

  iter  continuity  x-velocity  y-velocity  z-velocity      energy     time/iter
   738  2.7375e-06  1.3924e-04  1.5441e-06  7.5983e-02  2.6626e-06  0:00:44 1262
   739  2.7206e-06  1.3788e-04  1.5550e-06  7.5169e-02  2.6456e-06  0:00:35 1261
   740  2.6814e-06  1.3655e-04  1.5230e-06  7.4391e-02  2.6059e-06  0:00:28 1260
   741  2.6214e-06  1.3524e-04  1.4839e-06  7.3530e-02  2.5451e-06  0:00:23 1259
   742  2.5425e-06  1.3396e-04  1.4526e-06  7.2615e-02  2.4649e-06  0:04:30 1258
   743  2.4467e-06  1.3271e-04  1.4312e-06  7.1687e-02  2.3675e-06  0:03:36 1257
   744  2.3362e-06  1.3148e-04  1.4155e-06  7.0777e-02  2.2548e-06  0:02:52 1256
   745  2.2113e-06  1.3024e-04  1.4073e-06  6.9890e-02  2.1268e-06  0:02:18 1255
   746  2.0799e-06  1.2902e-04  1.4093e-06  6.9021e-02  1.9904e-06  0:01:50 1254
   747  1.9497e-06  1.2782e-04  1.3940e-06  6.8170e-02  1.8550e-06  0:01:28 1253
   748  1.8237e-06  1.2665e-04  1.3706e-06  6.7321e-02  1.7237e-06  0:01:10 1252

  iter  continuity  x-velocity  y-velocity  z-velocity      energy     time/iter
   749  1.7071e-06  1.2550e-04  1.3484e-06  6.6473e-02  1.6019e-06  0:00:56 1251
   750  1.6057e-06  1.2436e-04  1.3307e-06  6.5638e-02  1.4955e-06  0:00:45 1250
   751  1.5240e-06  1.2322e-04  1.3178e-06  6.4778e-02  1.4094e-06  0:00:36 1249
   752  1.4678e-06  1.2210e-04  1.3063e-06  6.3874e-02  1.3506e-06  0:00:29 1248
   753  1.4407e-06  1.2099e-04  1.2943e-06  6.3001e-02  1.3232e-06  0:00:23 1247
   754  1.4414e-06  1.1989e-04  1.2839e-06  6.2147e-02  1.3259e-06  0:00:18 1246
   755  1.4678e-06  1.1882e-04  1.2753e-06  6.1310e-02  1.3565e-06  0:00:15 1245
   756  1.5157e-06  1.1776e-04  1.2681e-06  6.0505e-02  1.4102e-06  0:04:21 1244
   757  1.5773e-06  1.1672e-04  1.2560e-06  5.9742e-02  1.4790e-06  0:03:28 1243
   758  1.6528e-06  1.1570e-04  1.2525e-06  5.9019e-02  1.5619e-06  0:02:46 1242
   759  1.7353e-06  1.1470e-04  1.2585e-06  5.8370e-02  1.6506e-06  0:02:13 1241

  iter  continuity  x-velocity  y-velocity  z-velocity      energy     time/iter
   760  1.8185e-06  1.1373e-04  1.2684e-06  5.7769e-02  1.7386e-06  0:01:46 1240
   761  1.8979e-06  1.1278e-04  1.2789e-06  5.7171e-02  1.8222e-06  0:01:25 1239
   762  1.9710e-06  1.1186e-04  1.2895e-06  5.6616e-02  1.8988e-06  0:01:08 1238
   763  2.0358e-06  1.1095e-04  1.3006e-06  5.6114e-02  1.9666e-06  0:00:54 1237
   764  2.0908e-06  1.1007e-04  1.3126e-06  5.5680e-02  2.0242e-06  0:00:43 1236
   765  2.1353e-06  1.0921e-04  1.3254e-06  5.5318e-02  2.0708e-06  0:00:35 1235
   766  2.1689e-06  1.0837e-04  1.3389e-06  5.5010e-02  2.1059e-06  0:00:28 1234
   767  2.1917e-06  1.0756e-04  1.3530e-06  5.4753e-02  2.1298e-06  0:00:22 1233
   768  2.2038e-06  1.0678e-04  1.3676e-06  5.4557e-02  2.1427e-06  0:00:18 1232
   769  2.2058e-06  1.0602e-04  1.3828e-06  5.4408e-02  2.1451e-06  0:00:14 1231
   770  2.1987e-06  1.0530e-04  1.3981e-06  5.4315e-02  2.1383e-06  0:04:17 1230

  iter  continuity  x-velocity  y-velocity  z-velocity      energy     time/iter
   771  2.1837e-06  1.0462e-04  1.4136e-06  5.4267e-02  2.1234e-06  0:03:26 1229
   772  2.1629e-06  1.0397e-04  1.4294e-06  5.4283e-02  2.1023e-06  0:02:44 1228
   773  2.1374e-06  1.0336e-04  1.4453e-06  5.4351e-02  2.0764e-06  0:02:11 1227
   774  2.1078e-06  1.0278e-04  1.4615e-06  5.4467e-02  2.0464e-06  0:01:45 1226
   775  2.0769e-06  1.0224e-04  1.4779e-06  5.4633e-02  2.0152e-06  0:01:24 1225
   776  2.0467e-06  1.0173e-04  1.4951e-06  5.4848e-02  1.9848e-06  0:01:07 1224
   777  2.0192e-06  1.0127e-04  1.5135e-06  5.5085e-02  1.9571e-06  0:00:54 1223
   778  1.9968e-06  1.0086e-04  1.5333e-06  5.5299e-02  1.9347e-06  0:00:43 1222
   779  1.9805e-06  1.0049e-04  1.5547e-06  5.5472e-02  1.9185e-06  0:00:34 1221
   780  1.9712e-06  1.0016e-04  1.5778e-06  5.5622e-02  1.9095e-06  0:00:27 1220
   781  1.9708e-06  9.9894e-05  1.6027e-06  5.5832e-02  1.9098e-06  0:00:22 1219

  iter  continuity  x-velocity  y-velocity  z-velocity      energy     time/iter
   782  1.9794e-06  9.9678e-05  1.6239e-06  5.6058e-02  1.9193e-06  0:00:18 1218
   783  2.0005e-06  9.9519e-05  1.6526e-06  5.6314e-02  1.9418e-06  0:00:14 1217
   784  2.0325e-06  9.9427e-05  1.6852e-06  5.6647e-02  1.9756e-06  0:04:14 1216
   785  2.0807e-06  9.9419e-05  1.7189e-06  5.7141e-02  2.0260e-06  0:03:23 1215
   786  2.1416e-06  9.9487e-05  1.7515e-06  5.7784e-02  2.0892e-06  0:02:43 1214
   787  2.1965e-06  9.9606e-05  1.7867e-06  5.8399e-02  2.1464e-06  0:02:10 1213
   788  2.1814e-06  9.9547e-05  1.8454e-06  5.9171e-02  2.1319e-06  0:01:44 1212
   789  2.2643e-06  9.9714e-05  1.8694e-06  6.4213e-02  2.2174e-06  0:01:23 1211
   790  2.3316e-06  1.0001e-04  1.9312e-06  7.5725e-02  2.2865e-06  0:01:06 1210
   791  2.3565e-06  1.0044e-04  2.0269e-06  9.0206e-02  2.3156e-06  0:00:53 1209
   792  2.5175e-06  1.0210e-04  2.1823e-06  9.4417e-02  2.4871e-06  0:00:42 1208

  iter  continuity  x-velocity  y-velocity  z-velocity      energy     time/iter
   793  2.6021e-06  1.0429e-04  2.3184e-06  9.2184e-02  2.5741e-06  0:00:34 1207
   794  2.5873e-06  1.0564e-04  2.3752e-06  8.8070e-02  2.5542e-06  0:00:27 1206
   795  2.5954e-06  1.0613e-04  2.3322e-06  8.4218e-02  2.5558e-06  0:00:22 1205
   796  2.6361e-06  1.0662e-04  2.2969e-06  8.1389e-02  2.5939e-06  0:00:17 1204
   797  2.6721e-06  1.0739e-04  2.3363e-06  7.9562e-02  2.6308e-06  0:00:14 1203
   798  2.7037e-06  1.0832e-04  2.4072e-06  7.8384e-02  2.6642e-06  0:04:11 1202
   799  2.7320e-06  1.0936e-04  2.4670e-06  7.7467e-02  2.6942e-06  0:03:21 1201
   800  2.7561e-06  1.1051e-04  2.5173e-06  7.6771e-02  2.7195e-06  0:02:41 1200
   801  2.7763e-06  1.1175e-04  2.5642e-06  7.6226e-02  2.7401e-06  0:02:08 1199
   802  2.7952e-06  1.1310e-04  2.6121e-06  7.5891e-02  2.7590e-06  0:01:43 1198
   803  2.8370e-06  1.1491e-04  2.7330e-06  7.5709e-02  2.8067e-06  0:01:22 1197

  iter  continuity  x-velocity  y-velocity  z-velocity      energy     time/iter
   804  2.9093e-06  1.1771e-04  2.8790e-06  7.5721e-02  2.8851e-06  0:01:06 1196
   805  2.8841e-06  1.2004e-04  2.9675e-06  7.5831e-02  2.8601e-06  0:00:52 1195
   806  2.8384e-06  1.2099e-04  2.9460e-06  7.5926e-02  2.8092e-06  0:00:42 1194
   807  2.9131e-06  1.2005e-04  2.9161e-06  7.5975e-02  2.8811e-06  0:00:33 1193
   808  3.0659e-06  1.2051e-04  3.0878e-06  7.6332e-02  3.0360e-06  0:00:27 1192
   809  3.0193e-06  1.2236e-04  3.3588e-06  7.6627e-02  2.9896e-06  0:00:21 1191
[...]
  1793  2.7318e-07  3.7777e-06  2.8630e-07  1.5171e-02  2.7281e-07  0:00:07  207

  iter  continuity  x-velocity  y-velocity  z-velocity      energy     time/iter
  1794  2.7399e-07  5.1866e-06  2.9819e-07  1.6980e-02  2.7387e-07  0:00:06  206
  1795  2.7512e-07  7.0679e-06  3.0856e-07  2.1505e-02  2.7531e-07  0:00:05  205
  1796  2.3132e-07  7.0378e-06  3.2026e-07  2.9513e-02  2.3134e-07  0:00:04  204
  1797  2.5292e-07  7.2007e-06  3.0325e-07  2.8059e-02  2.5291e-07  0:00:03  203
  1798  1.7233e-07  6.5885e-06  2.2807e-07  3.0510e-02  1.7211e-07  0:00:02  202
  1799  1.7028e-07  4.9126e-06  2.0281e-07  3.1286e-02  1.6964e-07  0:00:02  201
  1800  1.8976e-07  3.5360e-06  1.8245e-07  2.5743e-02  1.8916e-07  0:00:01  200
  1801  1.8793e-07  2.8334e-06  1.7922e-07  1.7886e-02  1.8747e-07  0:00:41  199
  1802  1.7891e-07  2.7486e-06  1.7704e-07  1.3584e-02  1.7858e-07  0:00:33  198
  1803  1.7073e-07  3.0518e-06  1.6976e-07  1.6823e-02  1.7050e-07  0:00:26  197
  1804  1.6493e-07  3.4920e-06  1.6039e-07  2.2854e-02  1.6478e-07  0:00:21  196

  iter  continuity  x-velocity  y-velocity  z-velocity      energy     time/iter
  1805  1.6129e-07  3.9392e-06  1.5170e-07  2.7577e-02  1.6120e-07  0:00:16  195
  1806  1.5973e-07  4.3575e-06  1.4518e-07  2.9703e-02  1.5971e-07  0:00:13  194
  1807  1.6038e-07  4.7541e-06  1.4173e-07  2.8924e-02  1.6042e-07  0:00:10  193
  1808  1.6334e-07  5.1482e-06  1.4168e-07  2.5465e-02  1.6345e-07  0:00:08  192
  1809  1.6907e-07  5.5663e-06  1.4514e-07  1.9763e-02  1.6926e-07  0:00:07  191
  1810  1.7910e-07  6.0481e-06  1.5378e-07  1.2976e-02  1.7937e-07  0:00:05  190
  1811  2.5996e-07  7.0346e-06  2.3630e-07  1.2714e-02  2.6032e-07  0:00:04  189
  1812  2.1662e-07  5.5927e-06  2.4613e-07  1.7333e-02  2.1635e-07  0:00:03  188
  1813  2.4965e-07  3.8008e-06  2.7526e-07  1.6572e-02  2.4909e-07  0:00:03  187
  1814  2.7498e-07  3.6846e-06  2.8791e-07  1.5342e-02  2.7458e-07  0:00:02  186
  1815  2.7572e-07  5.0393e-06  2.9788e-07  1.7515e-02  2.7556e-07  0:00:02  185

  iter  continuity  x-velocity  y-velocity  z-velocity      energy     time/iter
  1816  2.7743e-07  6.9156e-06  3.0650e-07  2.1544e-02  2.7756e-07  0:00:01  184
  1817  2.3747e-07  7.1444e-06  3.1405e-07  2.8767e-02  2.3750e-07  0:00:38  183
  1818  2.7094e-07  7.3645e-06  3.1627e-07  2.7066e-02  2.7094e-07  0:00:30  182
  1819  1.8606e-07  6.6898e-06  2.3919e-07  3.0018e-02  1.8584e-07  0:00:24  181
  1820  1.8304e-07  5.0243e-06  2.1095e-07  3.1141e-02  1.8241e-07  0:00:19  180
  1821  2.0141e-07  3.6173e-06  1.8828e-07  2.6102e-02  2.0079e-07  0:00:15  179
  1822  2.0044e-07  2.8453e-06  1.8368e-07  1.8416e-02  1.9995e-07  0:00:12  178
  1823  1.9328e-07  2.6881e-06  1.8145e-07  1.3458e-02  1.9291e-07  0:00:10  177
  1824  1.8718e-07  2.9626e-06  1.7521e-07  1.5746e-02  1.8690e-07  0:00:08  176
  1825  1.8320e-07  3.4146e-06  1.6748e-07  2.1568e-02  1.8299e-07  0:00:06  175
  1826  1.8093e-07  3.8945e-06  1.6049e-07  2.6546e-02  1.8079e-07  0:00:05  174

  iter  continuity  x-velocity  y-velocity  z-velocity      energy     time/iter
  1827  1.8017e-07  4.3527e-06  1.5535e-07  2.9093e-02  1.8008e-07  0:00:04  173
  1828  1.8102e-07  4.7899e-06  1.5261e-07  2.8828e-02  1.8100e-07  0:00:03  172
  1829  1.8365e-07  5.2225e-06  1.5274e-07  2.5964e-02  1.8370e-07  0:00:02  171
  1830  1.8826e-07  5.6690e-06  1.5552e-07  2.0870e-02  1.8838e-07  0:00:02  170
  1831  1.9714e-07  6.1205e-06  1.6779e-07  1.4216e-02  1.9732e-07  0:00:02  169
  1832  2.6140e-07  6.8534e-06  2.3338e-07  1.1649e-02  2.6163e-07  0:00:01  168
  1833  2.3341e-07  5.3534e-06  2.5049e-07  1.5072e-02  2.3304e-07  0:00:34  167
  1834  2.6522e-07  3.6548e-06  2.8165e-07  1.6017e-02  2.6464e-07  0:00:27  166
  1835  2.8460e-07  3.6689e-06  2.9260e-07  1.6490e-02  2.8417e-07  0:00:22  165
  1836  2.8473e-07  5.0730e-06  3.0060e-07  1.8770e-02  2.8453e-07  0:00:17  164
  1837  2.8813e-07  6.9238e-06  3.1041e-07  2.2432e-02  2.8821e-07  0:00:14  163

  iter  continuity  x-velocity  y-velocity  z-velocity      energy     time/iter
  1838  2.5167e-07  7.1996e-06  3.1586e-07  2.8926e-02  2.5166e-07  0:00:11  162
  1839  2.7604e-07  7.4040e-06  3.1314e-07  2.7200e-02  2.7600e-07  0:00:09  161
  1840  1.9881e-07  6.7080e-06  2.3885e-07  3.0715e-02  1.9854e-07  0:00:07  160
  1841  2.0421e-07  4.8113e-06  2.1960e-07  3.2728e-02  2.0353e-07  0:00:05  159
  1842  2.1568e-07  3.4779e-06  1.9338e-07  2.7109e-02  2.1504e-07  0:00:04  158
  1843  2.1079e-07  2.7297e-06  1.8793e-07  1.9277e-02  2.1027e-07  0:00:03  157
  1844  2.0296e-07  2.5720e-06  1.8351e-07  1.3628e-02  2.0255e-07  0:00:03  156
  1845  1.9716e-07  2.8527e-06  1.7634e-07  1.4795e-02  1.9684e-07  0:00:02  155
  1846  1.9345e-07  3.3236e-06  1.6905e-07  2.0134e-02  1.9320e-07  0:00:02  154
  1847  1.9110e-07  3.8306e-06  1.6295e-07  2.4970e-02  1.9091e-07  0:00:01  153
  1848  1.8981e-07  4.3201e-06  1.5845e-07  2.7549e-02  1.8969e-07  0:00:01  152

  iter  continuity  x-velocity  y-velocity  z-velocity      energy     time/iter
  1849  1.8978e-07  4.7896e-06  1.5585e-07  2.7459e-02  1.8972e-07  0:00:01  151
  1850  1.9121e-07  5.2541e-06  1.5555e-07  2.4875e-02  1.9123e-07  0:00:31  150
  1851  1.9426e-07  5.7284e-06  1.5759e-07  2.0252e-02  1.9436e-07  0:00:24  149
  1852  2.0408e-07  6.1860e-06  1.7462e-07  1.4249e-02  2.0424e-07  0:00:19  148
  1853  2.5586e-07  6.6994e-06  2.2879e-07  1.2091e-02  2.5602e-07  0:00:15  147
  1854  2.3802e-07  5.1314e-06  2.5139e-07  1.5235e-02  2.3761e-07  0:00:12  146
  1855  2.6814e-07  3.4729e-06  2.8281e-07  1.6563e-02  2.6756e-07  0:00:10  145
  1856  2.8350e-07  3.5905e-06  2.9265e-07  1.7393e-02  2.8307e-07  0:00:08  144
  1857  2.8288e-07  5.0710e-06  2.9940e-07  1.9631e-02  2.8268e-07  0:00:06  143
  1858  2.8916e-07  6.9223e-06  3.1290e-07  2.3242e-02  2.8924e-07  0:00:05  142
  1859  2.4576e-07  7.2068e-06  3.0899e-07  2.8740e-02  2.4577e-07  0:00:04  141

  iter  continuity  x-velocity  y-velocity  z-velocity      energy     time/iter
  1860  2.6580e-07  7.4003e-06  3.0335e-07  2.7187e-02  2.6576e-07  0:00:03  140
  1861  1.8913e-07  6.4420e-06  2.3395e-07  3.1216e-02  1.8878e-07  0:00:02  139
  1862  1.9859e-07  4.5878e-06  2.1039e-07  3.2625e-02  1.9790e-07  0:00:02  138
  1863  2.0559e-07  3.2910e-06  1.8502e-07  2.7030e-02  2.0496e-07  0:00:02  137
  1864  1.9840e-07  2.5362e-06  1.7883e-07  1.9402e-02  1.9789e-07  0:00:01  136
  1865  1.8974e-07  2.3688e-06  1.7313e-07  1.3527e-02  1.8934e-07  0:00:28  135
  1866  1.8346e-07  2.6641e-06  1.6565e-07  1.3859e-02  1.8315e-07  0:00:22  134
  1867  1.7919e-07  3.1635e-06  1.5863e-07  1.8649e-02  1.7895e-07  0:00:18  133
  1868  1.7610e-07  3.7034e-06  1.5285e-07  2.3271e-02  1.7594e-07  0:00:14  132
  1869  1.7397e-07  4.2267e-06  1.4854e-07  2.5845e-02  1.7388e-07  0:00:11  131
  1870  1.7304e-07  4.7288e-06  1.4591e-07  2.5894e-02  1.7303e-07  0:00:09  130

  iter  continuity  x-velocity  y-velocity  z-velocity      energy     time/iter
  1871  1.7356e-07  5.2234e-06  1.4531e-07  2.3576e-02  1.7364e-07  0:00:07  129
  1872  1.7569e-07  5.7243e-06  1.4705e-07  1.9383e-02  1.7587e-07  0:00:06  128
  1873  1.8965e-07  6.2056e-06  1.7130e-07  1.4151e-02  1.8989e-07  0:00:04  127
  1874  2.3312e-07  6.5038e-06  2.1760e-07  1.2706e-02  2.3328e-07  0:00:04  126
  1875  2.1951e-07  4.7918e-06  2.4283e-07  1.5992e-02  2.1906e-07  0:00:03  125
  1876  2.5364e-07  3.3021e-06  2.7247e-07  1.7582e-02  2.5308e-07  0:00:02  124
  1877  2.6634e-07  3.4823e-06  2.8571e-07  1.8918e-02  2.6594e-07  0:00:02  123
  1878  2.6560e-07  5.0079e-06  2.9260e-07  2.0729e-02  2.6544e-07  0:00:01  122
  1879  2.7522e-07  6.8619e-06  3.0886e-07  2.3960e-02  2.7535e-07  0:00:25  121
  1880  2.2588e-07  7.2284e-06  2.9837e-07  2.8523e-02  2.2597e-07  0:00:20  120
  1881  2.4539e-07  7.4100e-06  2.9471e-07  2.7502e-02  2.4543e-07  0:00:16  119

  iter  continuity  x-velocity  y-velocity  z-velocity      energy     time/iter
  1882  1.6187e-07  6.2479e-06  2.2736e-07  3.2158e-02  1.6147e-07  0:00:13  118
  1883  1.7326e-07  4.4483e-06  1.9702e-07  3.3209e-02  1.7255e-07  0:00:10  117
  1884  1.7806e-07  3.1598e-06  1.7032e-07  2.7797e-02  1.7742e-07  0:00:08  116
  1885  1.6895e-07  2.3722e-06  1.6288e-07  2.0202e-02  1.6844e-07  0:00:06  115
  1886  1.5928e-07  2.1702e-06  1.5613e-07  1.3882e-02  1.5889e-07  0:00:05  114
  1887  1.5257e-07  2.4667e-06  1.4840e-07  1.3117e-02  1.5228e-07  0:00:04  113
  1888  1.4810e-07  2.9882e-06  1.4169e-07  1.7310e-02  1.4790e-07  0:00:03  112
  1889  1.4486e-07  3.5552e-06  1.3637e-07  2.1810e-02  1.4475e-07  0:00:02  111
  1890  1.4258e-07  4.1053e-06  1.3246e-07  2.4492e-02  1.4256e-07  0:00:02  110
  1891  1.4160e-07  4.6319e-06  1.3011e-07  2.4778e-02  1.4168e-07  0:00:02  109
  1892  1.4230e-07  5.1475e-06  1.2970e-07  2.2794e-02  1.4250e-07  0:00:01  108

  iter  continuity  x-velocity  y-velocity  z-velocity      energy     time/iter
  1893  1.4484e-07  5.6661e-06  1.3171e-07  1.8995e-02  1.4516e-07  0:00:01  107
  1894  1.5759e-07  6.1505e-06  1.5381e-07  1.4375e-02  1.5796e-07  0:00:01  106
  1895  2.1467e-07  6.5653e-06  2.0945e-07  1.2724e-02  2.1496e-07  0:00:22  105
  1896  1.9357e-07  4.8188e-06  2.3182e-07  1.6203e-02  1.9316e-07  0:00:17  104
  1897  2.3342e-07  3.2922e-06  2.6228e-07  1.8059e-02  2.3288e-07  0:00:14  103
  1898  2.4804e-07  3.2999e-06  2.7801e-07  1.9422e-02  2.4765e-07  0:00:11  102
  1899  2.5033e-07  4.8098e-06  2.8789e-07  2.0731e-02  2.5020e-07  0:00:09  101
  1900  2.5896e-07  6.6581e-06  3.0398e-07  2.3838e-02  2.5913e-07  0:00:07  100
  1901  2.1008e-07  7.2813e-06  2.8988e-07  2.7784e-02  2.1030e-07  0:00:05   99
  1902  2.3674e-07  7.4825e-06  3.0049e-07  2.7403e-02  2.3688e-07  0:00:04   98
  1903  1.3780e-07  6.2452e-06  2.2830e-07  3.2443e-02  1.3744e-07  0:00:03   97

  iter  continuity  x-velocity  y-velocity  z-velocity      energy     time/iter
  1904  1.4988e-07  4.4492e-06  1.9201e-07  3.3414e-02  1.4916e-07  0:00:03   96
  1905  1.5483e-07  3.1464e-06  1.6162e-07  2.8053e-02  1.5420e-07  0:00:02   95
  1906  1.4441e-07  2.3163e-06  1.5248e-07  2.0730e-02  1.4392e-07  0:00:02   94
  1907  1.3394e-07  2.0614e-06  1.4478e-07  1.4296e-02  1.3359e-07  0:00:01   93
  1908  1.2735e-07  2.3357e-06  1.3680e-07  1.2686e-02  1.2712e-07  0:00:01   92
  1909  1.2362e-07  2.8619e-06  1.3043e-07  1.6270e-02  1.2349e-07  0:00:01   91
  1910  1.2134e-07  3.4431e-06  1.2579e-07  2.0641e-02  1.2131e-07  0:00:01   90
  1911  1.2008e-07  4.0094e-06  1.2263e-07  2.3428e-02  1.2016e-07  0:00:18   89
  1912  1.2021e-07  4.5511e-06  1.2100e-07  2.3935e-02  1.2041e-07  0:00:14   88
  1913  1.2220e-07  5.0796e-06  1.2123e-07  2.2200e-02  1.2252e-07  0:00:11   87
  1914  1.2616e-07  5.6085e-06  1.2385e-07  1.8641e-02  1.2661e-07  0:00:09   86

  iter  continuity  x-velocity  y-velocity  z-velocity      energy     time/iter
  1915  1.4057e-07  6.0980e-06  1.4645e-07  1.4445e-02  1.4105e-07  0:00:07   85
  1916  2.0415e-07  6.5357e-06  2.0524e-07  1.2825e-02  2.0450e-07  0:00:06   84
  1917  1.8146e-07  4.7833e-06  2.2691e-07  1.6430e-02  1.8109e-07  0:00:04   83
  1918  2.2522e-07  3.2908e-06  2.5795e-07  1.8549e-02  2.2472e-07  0:00:04   82
  1919  2.4201e-07  3.2625e-06  2.7659e-07  1.9721e-02  2.4165e-07  0:00:03   81
  1920  2.4541e-07  4.7708e-06  2.8740e-07  2.0872e-02  2.4531e-07  0:00:02   80
  1921  2.5509e-07  6.6148e-06  3.0474e-07  2.3723e-02  2.5528e-07  0:00:02   79
  1922  2.0658e-07  7.3302e-06  2.8870e-07  2.7442e-02  2.0686e-07  0:00:01   78
  1923  2.3305e-07  7.5203e-06  3.0235e-07  2.7447e-02  2.3322e-07  0:00:01   77
  1924  1.3227e-07  6.1876e-06  2.3086e-07  3.2698e-02  1.3189e-07  0:00:01   76
  1925  1.4557e-07  4.4238e-06  1.9091e-07  3.3404e-02  1.4485e-07  0:00:01   75

  iter  continuity  x-velocity  y-velocity  z-velocity      energy     time/iter
  1926  1.4982e-07  3.1412e-06  1.6023e-07  2.8087e-02  1.4919e-07  0:00:01   74
  1927  1.3946e-07  2.3155e-06  1.5060e-07  2.0877e-02  1.3898e-07  0:00:15   73
  1928  1.2982e-07  2.0490e-06  1.4262e-07  1.4412e-02  1.2947e-07  0:00:12   72
  1929  1.2440e-07  2.3089e-06  1.3493e-07  1.2498e-02  1.2417e-07  0:00:09   71
  1930  1.2191e-07  2.8268e-06  1.2922e-07  1.5807e-02  1.2178e-07  0:00:07   70
  1931  1.2079e-07  3.4047e-06  1.2532e-07  2.0068e-02  1.2076e-07  0:00:06   69
  1932  1.2058e-07  3.9704e-06  1.2285e-07  2.2833e-02  1.2065e-07  0:00:05   68
  1933  1.2164e-07  4.5128e-06  1.2179e-07  2.3377e-02  1.2182e-07  0:00:04   67
  1934  1.2440e-07  5.0424e-06  1.2245e-07  2.1734e-02  1.2469e-07  0:00:03   66
  1935  1.2897e-07  5.5725e-06  1.2535e-07  1.8377e-02  1.2938e-07  0:00:02   65
  1936  1.4068e-07  6.0626e-06  1.4389e-07  1.4315e-02  1.4114e-07  0:00:02   64

  iter  continuity  x-velocity  y-velocity  z-velocity      energy     time/iter
  1937  2.1064e-07  6.6096e-06  2.0866e-07  1.2588e-02  2.1100e-07  0:00:01   63
  1938  1.8385e-07  4.8889e-06  2.2734e-07  1.6149e-02  1.8349e-07  0:00:01   62
  1939  2.2677e-07  3.3187e-06  2.5841e-07  1.8285e-02  2.2626e-07  0:00:01   61
  1940  2.4481e-07  3.2034e-06  2.7666e-07  1.9449e-02  2.4444e-07  0:00:01   60
  1941  2.4890e-07  4.6624e-06  2.8830e-07  2.0573e-02  2.4877e-07  0:00:01   59
  1942  2.5762e-07  6.4973e-06  3.0512e-07  2.3198e-02  2.5778e-07  0:00:00   58
  1943  2.1539e-07  7.3569e-06  2.9047e-07  2.7092e-02  2.1566e-07  0:00:00   57
  1944  2.2732e-07  7.4766e-06  2.9932e-07  2.7507e-02  2.2748e-07  0:00:11   56
  1945  1.4300e-07  6.4669e-06  2.2861e-07  3.1764e-02  1.4273e-07  0:00:09   55
  1946  1.4952e-07  4.6454e-06  1.9573e-07  3.3725e-02  1.4881e-07  0:00:07   54
  1947  1.5647e-07  3.3084e-06  1.6358e-07  2.8945e-02  1.5583e-07  0:00:06   53

  iter  continuity  x-velocity  y-velocity  z-velocity      energy     time/iter
  1948  1.4781e-07  2.4120e-06  1.5343e-07  2.1890e-02  1.4730e-07  0:00:04   52
  1949  1.3868e-07  2.0488e-06  1.4601e-07  1.5119e-02  1.3830e-07  0:00:03   51
  1950  1.3339e-07  2.2342e-06  1.3858e-07  1.2293e-02  1.3312e-07  0:00:03   50
  1951  1.3094e-07  2.7229e-06  1.3294e-07  1.5070e-02  1.3075e-07  0:00:02   49
  1952  1.2979e-07  3.2945e-06  1.2904e-07  1.9410e-02  1.2970e-07  0:00:02   48
  1953  1.2938e-07  3.8610e-06  1.2647e-07  2.2484e-02  1.2938e-07  0:00:01   47
  1954  1.2999e-07  4.4039e-06  1.2514e-07  2.3404e-02  1.3009e-07  0:00:01   46
  1955  1.3211e-07  4.9320e-06  1.2533e-07  2.2112e-02  1.3231e-07  0:00:01   45
  1956  1.3589e-07  5.4590e-06  1.2755e-07  1.9036e-02  1.3621e-07  0:00:01   44
  1957  1.4133e-07  5.9945e-06  1.3193e-07  1.5037e-02  1.4177e-07  0:00:00   43
  1958  2.2260e-07  6.8594e-06  2.1577e-07  1.2101e-02  2.2303e-07  0:00:00   42

  iter  continuity  x-velocity  y-velocity  z-velocity      energy     time/iter
  1959  1.8843e-07  5.5557e-06  2.2388e-07  1.5276e-02  1.8824e-07  0:00:00   41
  1960  2.2102e-07  3.6543e-06  2.5597e-07  1.7544e-02  2.2047e-07  0:00:08   40
  1961  2.4510e-07  2.9849e-06  2.7235e-07  1.8635e-02  2.4464e-07  0:00:06   39
  1962  2.5181e-07  4.0888e-06  2.8614e-07  1.9798e-02  2.5157e-07  0:00:05   38
  1963  2.5559e-07  5.8798e-06  2.9916e-07  2.1896e-02  2.5563e-07  0:00:04   37
  1964  2.4411e-07  7.3798e-06  2.9958e-07  2.5691e-02  2.4438e-07  0:00:03   36
  1965  1.9995e-07  7.3461e-06  2.8838e-07  2.8285e-02  2.0009e-07  0:00:02   35
  1966  1.8311e-07  7.2568e-06  2.4212e-07  2.8514e-02  1.8314e-07  0:00:02   34
  1967  1.4033e-07  5.5460e-06  2.0689e-07  3.3279e-02  1.3970e-07  0:00:01   33
  1968  1.5569e-07  3.9790e-06  1.7140e-07  3.1351e-02  1.5498e-07  0:00:01   32
  1969  1.5354e-07  2.8392e-06  1.5444e-07  2.5325e-02  1.5293e-07  0:00:01   31

  iter  continuity  x-velocity  y-velocity  z-velocity      energy     time/iter
  1970  1.4448e-07  2.1560e-06  1.4786e-07  1.8142e-02  1.4401e-07  0:00:01   30
  1971  1.3760e-07  2.0437e-06  1.4111e-07  1.2800e-02  1.3724e-07  0:00:01   29
  1972  1.3376e-07  2.3961e-06  1.3511e-07  1.3053e-02  1.3350e-07  0:00:06   28
  1973  1.3160e-07  2.9389e-06  1.3057e-07  1.7243e-02  1.3143e-07  0:00:05   27
  1974  1.3017e-07  3.5127e-06  1.2718e-07  2.1279e-02  1.3008e-07  0:00:04   26
  1975  1.2946e-07  4.0668e-06  1.2480e-07  2.3484e-02  1.2948e-07  0:00:03   25
  1976  1.3001e-07  4.5983e-06  1.2365e-07  2.3439e-02  1.3012e-07  0:00:02   24
  1977  1.3219e-07  5.1204e-06  1.2417e-07  2.1315e-02  1.3242e-07  0:00:02   23
  1978  1.3603e-07  5.6471e-06  1.2689e-07  1.7734e-02  1.3638e-07  0:00:01   22
  1979  1.4165e-07  6.1726e-06  1.3369e-07  1.3786e-02  1.4211e-07  0:00:01   21
  1980  2.2889e-07  6.9564e-06  2.2138e-07  1.2251e-02  2.2929e-07  0:00:01   20

  iter  continuity  x-velocity  y-velocity  z-velocity      energy     time/iter
  1981  1.8517e-07  5.4097e-06  2.2664e-07  1.5601e-02  1.8489e-07  0:00:01   19
  1982  2.2342e-07  3.5364e-06  2.5831e-07  1.7054e-02  2.2285e-07  0:00:00   18
  1983  2.4600e-07  2.9550e-06  2.7505e-07  1.7720e-02  2.4553e-07  0:00:00   17
  1984  2.5118e-07  4.2409e-06  2.8653e-07  1.9074e-02  2.5096e-07  0:00:00   16
  1985  2.5481e-07  6.0948e-06  3.0020e-07  2.1923e-02  2.5488e-07  0:00:00   15
  1986  2.2978e-07  7.3714e-06  2.9398e-07  2.6202e-02  2.3006e-07  0:00:00   14
  1987  1.9202e-07  7.3558e-06  2.7877e-07  2.7812e-02  1.9216e-07  0:00:00   13
  1988  1.7255e-07  7.2400e-06  2.3125e-07  2.7962e-02  1.7259e-07  0:00:02   12
  1989  1.3064e-07  5.5538e-06  1.9816e-07  3.2495e-02  1.3001e-07  0:00:02   11
  1990  1.4750e-07  3.9632e-06  1.6511e-07  3.0673e-02  1.4677e-07  0:00:01   10
  1991  1.4582e-07  2.7935e-06  1.4919e-07  2.4765e-02  1.4520e-07  0:00:01    9

  iter  continuity  x-velocity  y-velocity  z-velocity      energy     time/iter
  1992  1.3644e-07  2.0811e-06  1.4330e-07  1.7762e-02  1.3595e-07  0:00:01    8
  1993  1.2890e-07  1.9618e-06  1.3692e-07  1.2636e-02  1.2854e-07  0:00:00    7
  1994  1.2440e-07  2.3315e-06  1.3090e-07  1.3056e-02  1.2413e-07  0:00:00    6
  1995  1.2165e-07  2.8947e-06  1.2610e-07  1.7247e-02  1.2148e-07  0:00:00    5
  1996  1.1972e-07  3.4850e-06  1.2238e-07  2.1234e-02  1.1965e-07  0:00:00    4
  1997  1.1862e-07  4.0524e-06  1.1968e-07  2.3395e-02  1.1867e-07  0:00:00    3
  1998  1.1895e-07  4.5949e-06  1.1829e-07  2.3333e-02  1.1911e-07  0:00:00    2
  1999  1.2112e-07  5.1266e-06  1.1871e-07  2.1203e-02  1.2141e-07  0:00:00    1
  2000  1.2511e-07  5.6621e-06  1.2143e-07  1.7627e-02  1.2553e-07  0:00:00    0

> 
adjoint/                parallel/               server/
define/                 parametric-study/       solve/
display/                plot/                   surface/
exit                    preferences/            turbo-workflow/
file/                   print-license-usage     views/
mesh/                   report/

> /file/write-case-data project1
Fast-loading "C:\PROGRA~1\ANSYSI~1\v231\fluent\fluent23.1.0\\addons\afd\lib\hdfio.bin"
Done.

Writing to Engs-30669:"C:\Users\kebl7595\Desktop\CFD\Runs\Actual Data\0 degree smaller domain\project1.cas.h5" in NODE0 mode and compression level 1 ...
       11016 cells,     1 zone  ...
       37101 faces,     8 zones ...
       15196 nodes,     1 zone  ...
  Done.
Done.

Writing to Engs-30669:"C:\Users\kebl7595\Desktop\CFD\Runs\Actual Data\0 degree smaller domain\project1.dat.h5" in NODE0 mode and compression level 1 ...
  Writing results.
Done.

> /file/export/ascii "./surface.dat" wing te () no pressure mach-number quit no

Writing "./surface.dat"...

Writing information to ascii file ...
Done.


> 
adjoint/                parallel/               server/
define/                 parametric-study/       solve/
display/                plot/                   surface/
exit                    preferences/            turbo-workflow/
file/                   print-license-usage     views/
mesh/                   report/

> /exit

Posting ANSYS Product Improvement Program performance data 
Done.
Auto-Transcript Stop Time:  13:44:50, 20 May 2024 GMT Daylight Time 
Total Transcript Time: 2 Minute 15 Second.
