Auto-Transcript Start Time:  14:27:10, 20 May 2024 GMT Daylight Time 
Current Directory: "C:\Users\kebl7595\Desktop\CFD\Runs\Actual Data\0 degree smaller domain"

              Welcome to ANSYS Fluent 2023 R1

              Copyright 1987-2023 ANSYS, Inc. All Rights Reserved.
              Unauthorized use, distribution or duplication is prohibited.
              This product is subject to U.S. laws governing export and re-export.
              For full Legal Notice, see documentation.

Build Time: Nov 28 2022 09:52:02 EST  Build Id: 10208  
 
Connected License Server List:	1055@ansyslic.eng.ox.ac.uk

*********************************************
Info: Your license enables 4-way parallel execution.
For faster simulations, please start the application with the appropriate parallel options.
*********************************************


     --------------------------------------------------------------
     This is an academic version of ANSYS FLUENT. Usage of this product
     license is limited to the terms and conditions specified in your ANSYS
     license form, additional terms section.
     --------------------------------------------------------------
Host spawning Node 0 on machine "Engs-30669" (win64).

------------------------------------------------------------------------------------
ID    Hostname    Core  O.S.         PID    Vendor                                 
------------------------------------------------------------------------------------
n0    Engs-30669  1/32  Windows-x64  19560  13th Gen Intel(R) Core(TM) i9-13900    
host  Engs-30669        Windows-x64  44084  13th Gen Intel(R) Core(TM) i9-13900    

MPI Option Selected: intel
------------------------------------------------------------------------------------

Cleanup script file is C:\\Users\\kebl7595\\Desktop\\CFD\\Runs\\Actual Data\\0 degree smaller domain\\cleanup-fluent-Engs-30669-44084.bat
QA Service Message :
QA Services Agreement Enabled. This application is included in the scope of an ANSYS QA Services Agreement.
Posting ANSYS Product Improvement Program startup data
Done.

Reading journal file C:/Users/kebl7595/Desktop/CFD/Runs/Actual Data/0 degree smaller domain/project1.jou...

> /file/set-batch-options no no no 

> 
define/                 parametric-study/       solve/
display/                plot/                   surface/
exit                    preferences/            switch-to-meshing-mode
file/                   print-license-usage     turbo-workflow/
mesh/                   report/                 views/
parallel/               server/

> /file/import/cgns/mesh  "./project1.cgns"
Engs-30669 has other FLUENT parallel processes running.                       Process affinity not being set.

Importing "./project1.cgns"

Opening library "C:\\PROGRA~1\\ANSYSI~1\\v231\\fluent\\fluent23.1.0\\vki\\win64\\devtools4.4.6.dll"... done.

Read    15196 nodes
   11016 hexahedral cells, zone  1
    8100 quadrilateral wall faces, zone  2.
   28746 quadrilateral interior faces, zone  3.
     249 quadrilateral interface faces, zone  4.
       6 quadrilateral wall faces, zone  5.

Building...
     mesh
     materials,
     interface,
     domains,
     zones,
	default_exterior-1
	interface-default_subface
	default_interior-1
	default_subface
	default
     parallel,
The automatic selection for flux type has changed to Rhie-Chow: momentum based.

Done.


> 
adjoint/                parallel/               server/
define/                 parametric-study/       solve/
display/                plot/                   surface/
exit                    preferences/            turbo-workflow/
file/                   print-license-usage     views/
mesh/                   report/

> /define/models/solver/density-based-implicit yes

> 
adjoint/                parallel/               server/
define/                 parametric-study/       solve/
display/                plot/                   surface/
exit                    preferences/            turbo-workflow/
file/                   print-license-usage     views/
mesh/                   report/

> /define/models/energy? yes yes invalid command [yes]
yes

> /define/models/viscous/inviscid yes

> 
adjoint/                parallel/               server/
define/                 parametric-study/       solve/
display/                plot/                   surface/
exit                    preferences/            turbo-workflow/
file/                   print-license-usage     views/
mesh/                   report/

> /define/materials/change-create air air air is a fluid
yes 
Density
ideal-gas no data required.

no no no no 

> 
adjoint/                parallel/               server/
define/                 parametric-study/       solve/
display/                plot/                   surface/
exit                    preferences/            turbo-workflow/
file/                   print-license-usage     views/
mesh/                   report/

> /mesh/modify-zones/sep-face-zone-angle 2 90 yes

 3672 faces in contiguous region 0
 228 faces in contiguous region 1
 324 faces in contiguous region 2
 3672 faces in contiguous region 3
 204 faces in contiguous region 4
 Separates zone 2 into 5 zone(s).
Updating new zone information...
   created new zone default_subface:010 from default_subface
   created new zone default_subface:009 from default_subface
   created new zone default_subface:008 from default_subface
   created new zone default_subface:007 from default_subface
done.

> 
adjoint/                parallel/               server/
define/                 parametric-study/       solve/
display/                plot/                   surface/
exit                    preferences/            turbo-workflow/
file/                   print-license-usage     views/
mesh/                   report/

> /define/boundary-conditions/zone-name  5   te

> /define/boundary-conditions/zone-name  7 wing

> /define/boundary-conditions/zone-name  2 sym1

> /define/boundary-conditions/zone-name  9 sym2

> 
adjoint/                parallel/               server/
define/                 parametric-study/       solve/
display/                plot/                   surface/
exit                    preferences/            turbo-workflow/
file/                   print-license-usage     views/
mesh/                   report/

> /define/boundary-conditions/zone-name  8 far1

> /define/boundary-conditions/zone-name 10 far2

> 
adjoint/                parallel/               server/
define/                 parametric-study/       solve/
display/                plot/                   surface/
exit                    preferences/            turbo-workflow/
file/                   print-license-usage     views/
mesh/                   report/

> /define/boundary-conditions/zone-type  8 pressure-far-field

> /define/boundary-conditions/zone-type 10 pressure-far-field

> /define/boundary-conditions/zone-type  2 symmetry

> /define/boundary-conditions/zone-type  9 symmetry

> 
adjoint/                parallel/               server/
define/                 parametric-study/       solve/
display/                plot/                   surface/
exit                    preferences/            turbo-workflow/
file/                   print-license-usage     views/
mesh/                   report/

> /define/boundary-conditions/pressure-far-field (far2 far1)
far1 no 0 no 0.1 no 300 yes no 0.984808 no 0.173648 no 0

> /define/boundary-conditions/pressure-far-field (far2 far1)
far2 no 0 no 0.1 no 300 yes no 0.984808 no 0.173648 no 0

> 
adjoint/                parallel/               server/
define/                 parametric-study/       solve/
display/                plot/                   surface/
exit                    preferences/            turbo-workflow/
file/                   print-license-usage     views/
mesh/                   report/

> /solve/initialize/compute-defaults/pressure-far-field (far2 far1)
far1

> /solve/initialize/initialize-flow

> 
adjoint/                parallel/               server/
define/                 parametric-study/       solve/
display/                plot/                   surface/
exit                    preferences/            turbo-workflow/
file/                   print-license-usage     views/
mesh/                   report/

> /solve/monitors/residual/convergence-criteria 1.e-9 1.e-9 1.e-9 1.e-9 1.e-9

> /solve/iterate 2000

  iter  continuity  x-velocity  y-velocity  z-velocity      energy     time/iter
     1  1.0000e+00  1.0000e+00  1.0000e+00  0.0000e+00  1.0000e+00  0:00:00 1999
     2  5.4047e-01  5.3208e-01  3.6236e-01  1.0000e+00  5.4112e-01  0:00:00 1998
     3  2.8397e-01  2.2380e-01  2.5087e-01  8.5991e-01  2.8422e-01  0:00:00 1997
     4  1.7786e-01  1.6815e-01  1.6289e-01  5.7694e-01  1.7792e-01  0:00:00 1996
     5  1.3708e-01  1.2298e-01  1.0588e-01  5.7626e-01  1.3718e-01  0:00:00 1995
     6  1.1431e-01  8.6117e-02  7.3678e-02  7.2216e-01  1.1444e-01  0:00:00 1994
     7  9.8263e-02  6.1406e-02  5.4635e-02  7.6215e-01  9.8423e-02  0:33:13 1993
     8  8.6120e-02  4.6491e-02  4.2078e-02  7.1067e-01  8.6286e-02  0:26:34 1992
     9  7.6729e-02  3.7767e-02  3.3337e-02  6.6029e-01  7.6890e-02  0:21:14 1991
    10  6.9800e-02  3.2906e-02  2.7186e-02  5.9851e-01  6.9953e-02  0:16:59 1990
    11  6.4565e-02  3.0483e-02  2.2807e-02  5.4806e-01  6.4708e-02  0:13:35 1989

  iter  continuity  x-velocity  y-velocity  z-velocity      energy     time/iter
    12  6.0952e-02  2.9555e-02  1.9638e-02  5.2273e-01  6.1084e-02  0:10:51 1988
    13  5.8626e-02  2.9464e-02  1.7306e-02  5.2748e-01  5.8749e-02  0:08:41 1987
    14  5.7427e-02  2.9954e-02  1.5688e-02  5.5937e-01  5.7540e-02  0:06:56 1986
    15  5.7233e-02  3.0849e-02  1.4506e-02  6.1318e-01  5.7339e-02  0:05:33 1985
    16  5.7840e-02  3.2003e-02  1.3699e-02  6.8305e-01  5.7939e-02  0:04:26 1984
    17  5.8850e-02  3.3261e-02  1.3283e-02  7.6622e-01  5.8942e-02  0:03:33 1983
    18  5.9943e-02  3.4479e-02  1.3181e-02  8.5821e-01  6.0026e-02  0:09:27 1982
    19  6.0998e-02  3.5630e-02  1.3194e-02  9.5441e-01  6.1071e-02  0:07:33 1981
    20  6.2019e-02  3.6611e-02  1.3295e-02  1.0479e+00  6.2081e-02  0:06:02 1980
    21  6.3027e-02  3.7413e-02  1.3489e-02  1.1323e+00  6.3077e-02  0:04:50 1979
    22  6.3982e-02  3.7908e-02  1.3673e-02  1.2011e+00  6.4020e-02  0:03:52 1978

  iter  continuity  x-velocity  y-velocity  z-velocity      energy     time/iter
    23  6.4660e-02  3.8119e-02  1.3810e-02  1.2488e+00  6.4685e-02  0:03:05 1977
    24  6.4803e-02  3.7977e-02  1.4100e-02  1.2722e+00  6.4815e-02  0:02:28 1976
    25  6.4243e-02  3.7535e-02  1.4320e-02  1.2643e+00  6.4242e-02  0:01:58 1975
    26  6.3141e-02  3.6803e-02  1.4339e-02  1.2429e+00  6.3126e-02  0:01:35 1974
    27  6.1794e-02  3.5970e-02  1.4276e-02  1.2052e+00  6.1766e-02  0:01:16 1973
    28  6.0176e-02  3.4967e-02  1.3973e-02  1.1487e+00  6.0136e-02  0:01:01 1972
    29  5.8059e-02  3.3792e-02  1.3650e-02  1.0788e+00  5.8008e-02  0:00:48 1971
    30  5.5330e-02  3.2554e-02  1.3327e-02  1.0099e+00  5.5269e-02  0:00:39 1970
    31  5.2064e-02  3.1252e-02  1.2815e-02  9.5489e-01  5.1994e-02  0:00:31 1969
    32  4.8735e-02  3.0191e-02  1.2479e-02  9.1648e-01  4.8658e-02  0:00:25 1968
    33  4.5251e-02  2.9248e-02  1.2202e-02  9.1143e-01  4.5168e-02  0:00:20 1967

  iter  continuity  x-velocity  y-velocity  z-velocity      energy     time/iter
    34  4.1542e-02  2.8411e-02  1.2120e-02  9.2275e-01  4.1454e-02  0:06:49 1966
    35  3.7588e-02  2.7708e-02  1.2243e-02  9.4645e-01  3.7497e-02  0:05:27 1965
    36  3.3698e-02  2.7304e-02  1.2613e-02  9.7603e-01  3.3603e-02  0:04:22 1964
    37  2.9868e-02  2.7174e-02  1.3255e-02  1.0063e+00  2.9772e-02  0:03:29 1963
    38  2.6131e-02  2.7285e-02  1.4052e-02  1.0346e+00  2.6033e-02  0:02:47 1962
    39  2.2549e-02  2.7586e-02  1.4955e-02  1.0575e+00  2.2451e-02  0:02:14 1961
    40  1.9133e-02  2.8038e-02  1.5895e-02  1.0723e+00  1.9034e-02  0:01:47 1960
    41  1.6165e-02  2.8632e-02  1.6876e-02  1.0749e+00  1.6066e-02  0:01:25 1959
    42  1.3504e-02  2.9307e-02  1.7818e-02  1.0664e+00  1.3406e-02  0:01:08 1958
    43  1.1304e-02  3.0056e-02  1.8674e-02  1.0481e+00  1.1208e-02  0:00:55 1957
    44  9.7503e-03  3.0835e-02  1.9435e-02  1.0215e+00  9.6600e-03  0:00:44 1956

  iter  continuity  x-velocity  y-velocity  z-velocity      energy     time/iter
    45  8.9954e-03  3.1614e-02  2.0080e-02  9.8687e-01  8.9175e-03  0:00:35 1955
    46  9.0735e-03  3.2370e-02  2.0618e-02  9.5776e-01  9.0131e-03  0:00:28 1954
    47  9.7649e-03  3.3077e-02  2.1051e-02  9.2882e-01  9.7220e-03  0:00:22 1953
    48  1.0845e-02  3.3717e-02  2.1381e-02  8.9668e-01  1.0816e-02  0:00:18 1952
    49  1.2132e-02  3.4264e-02  2.1610e-02  8.6086e-01  1.2113e-02  0:06:44 1951
    50  1.3574e-02  3.4738e-02  2.1743e-02  8.2399e-01  1.3563e-02  0:05:23 1950
    51  1.5133e-02  3.5154e-02  2.1782e-02  7.8499e-01  1.5128e-02  0:04:19 1949
    52  1.6697e-02  3.5493e-02  2.1735e-02  7.4207e-01  1.6694e-02  0:03:27 1948
    53  1.8129e-02  3.5737e-02  2.1608e-02  6.9494e-01  1.8130e-02  0:02:45 1947
    54  1.9314e-02  3.5850e-02  2.1414e-02  6.4555e-01  1.9316e-02  0:02:12 1946
    55  2.0220e-02  3.5853e-02  2.1157e-02  5.9453e-01  2.0224e-02  0:01:46 1945

  iter  continuity  x-velocity  y-velocity  z-velocity      energy     time/iter
    56  2.0891e-02  3.5768e-02  2.0833e-02  5.4356e-01  2.0897e-02  0:01:25 1944
    57  2.1367e-02  3.5462e-02  2.0462e-02  4.9675e-01  2.1375e-02  0:01:08 1943
    58  2.1679e-02  3.5024e-02  2.0020e-02  4.5282e-01  2.1687e-02  0:00:54 1942
    59  2.1835e-02  3.4507e-02  1.9481e-02  4.1735e-01  2.1844e-02  0:00:43 1941
    60  2.1833e-02  3.3843e-02  1.8870e-02  3.9354e-01  2.1843e-02  0:00:35 1940
    61  2.1663e-02  3.2995e-02  1.8196e-02  3.8466e-01  2.1674e-02  0:00:28 1939
    62  2.1317e-02  3.2006e-02  1.7453e-02  3.8881e-01  2.1328e-02  0:00:22 1938
    63  2.0782e-02  3.0881e-02  1.6643e-02  4.0219e-01  2.0794e-02  0:00:18 1937
    64  2.0053e-02  2.9634e-02  1.5777e-02  4.2117e-01  2.0065e-02  0:00:14 1936
    65  1.9129e-02  2.8289e-02  1.4859e-02  4.4416e-01  1.9140e-02  0:06:38 1935
    66  1.8017e-02  2.6848e-02  1.3895e-02  4.6867e-01  1.8028e-02  0:05:18 1934

  iter  continuity  x-velocity  y-velocity  z-velocity      energy     time/iter
    67  1.6715e-02  2.5399e-02  1.2891e-02  4.9264e-01  1.6724e-02  0:04:15 1933
    68  1.5243e-02  2.3996e-02  1.1866e-02  5.1464e-01  1.5251e-02  0:03:24 1932
    69  1.3630e-02  2.2646e-02  1.0847e-02  5.3386e-01  1.3636e-02  0:02:43 1931
    70  1.1934e-02  2.1549e-02  9.8435e-03  5.4859e-01  1.1937e-02  0:02:10 1930
    71  1.0219e-02  2.0703e-02  8.8584e-03  5.5884e-01  1.0217e-02  0:01:44 1929
    72  8.6184e-03  2.0060e-02  7.9339e-03  5.6367e-01  8.6107e-03  0:01:23 1928
    73  7.3400e-03  1.9665e-02  7.1006e-03  5.6216e-01  7.3236e-03  0:01:07 1927
    74  6.6523e-03  1.9554e-02  6.3977e-03  5.5786e-01  6.6256e-03  0:00:53 1926
    75  6.7539e-03  1.9678e-02  5.8483e-03  5.4909e-01  6.7187e-03  0:00:43 1925
    76  7.5796e-03  1.9910e-02  5.4682e-03  5.3599e-01  7.5397e-03  0:00:34 1924
    77  8.8774e-03  2.0349e-02  5.2580e-03  5.1754e-01  8.8353e-03  0:00:27 1923

  iter  continuity  x-velocity  y-velocity  z-velocity      energy     time/iter
    78  1.0400e-02  2.0906e-02  5.2112e-03  4.9462e-01  1.0357e-02  0:00:22 1922
    79  1.1981e-02  2.1501e-02  5.3013e-03  4.6676e-01  1.1935e-02  0:06:42 1921
    80  1.3513e-02  2.2055e-02  5.4874e-03  4.3489e-01  1.3465e-02  0:05:21 1920
    81  1.4965e-02  2.2522e-02  5.7146e-03  3.9894e-01  1.4915e-02  0:04:17 1919
    82  1.6290e-02  2.2871e-02  5.9467e-03  3.5983e-01  1.6235e-02  0:03:25 1918
    83  1.7447e-02  2.3073e-02  6.1563e-03  3.1927e-01  1.7388e-02  0:02:44 1917
    84  1.8412e-02  2.3113e-02  6.3268e-03  2.7891e-01  1.8349e-02  0:02:11 1916
    85  1.9177e-02  2.2973e-02  6.4536e-03  2.4118e-01  1.9109e-02  0:01:45 1915
    86  1.9746e-02  2.2656e-02  6.5427e-03  2.0970e-01  1.9673e-02  0:01:24 1914
    87  2.0133e-02  2.2174e-02  6.6136e-03  1.9106e-01  2.0055e-02  0:01:07 1913
    88  2.0337e-02  2.1535e-02  6.6965e-03  1.9148e-01  2.0253e-02  0:00:54 1912

  iter  continuity  x-velocity  y-velocity  z-velocity      energy     time/iter
    89  2.0347e-02  2.0765e-02  6.8223e-03  2.1194e-01  2.0257e-02  0:00:43 1911
    90  2.0169e-02  1.9885e-02  7.0236e-03  2.4717e-01  2.0074e-02  0:00:34 1910
    91  1.9809e-02  1.8933e-02  7.3243e-03  2.9291e-01  1.9709e-02  0:00:27 1909
    92  1.9281e-02  1.7958e-02  7.7363e-03  3.4419e-01  1.9175e-02  0:00:22 1908
    93  1.8602e-02  1.7016e-02  8.2590e-03  3.9752e-01  1.8492e-02  0:00:18 1907
    94  1.7791e-02  1.6166e-02  8.8780e-03  4.4969e-01  1.7676e-02  0:06:35 1906
    95  1.6866e-02  1.5463e-02  9.5732e-03  4.9882e-01  1.6747e-02  0:05:16 1905
    96  1.5848e-02  1.4970e-02  1.0327e-02  5.4336e-01  1.5725e-02  0:04:13 1904
    97  1.4817e-02  1.4747e-02  1.1118e-02  5.8175e-01  1.4691e-02  0:03:22 1903
    98  1.3751e-02  1.4880e-02  1.1916e-02  6.1311e-01  1.3622e-02  0:02:42 1902
    99  1.2649e-02  1.5300e-02  1.2719e-02  6.3572e-01  1.2519e-02  0:02:09 1901

  iter  continuity  x-velocity  y-velocity  z-velocity      energy     time/iter
   100  1.1533e-02  1.5920e-02  1.3505e-02  6.4931e-01  1.1402e-02  0:01:43 1900
   101  1.0424e-02  1.6750e-02  1.4240e-02  6.5402e-01  1.0293e-02  0:01:23 1899
   102  9.3413e-03  1.7773e-02  1.4905e-02  6.4795e-01  9.2099e-03  0:01:06 1898
   103  8.2987e-03  1.8940e-02  1.5487e-02  6.3229e-01  8.1685e-03  0:00:53 1897
   104  7.3017e-03  2.0061e-02  1.5967e-02  6.0975e-01  7.1737e-03  0:00:42 1896
   105  6.3850e-03  2.1263e-02  1.6350e-02  5.7910e-01  6.2609e-03  0:00:34 1895
   106  5.5374e-03  2.2414e-02  1.6620e-02  5.4026e-01  5.4187e-03  0:00:27 1894
   107  4.7889e-03  2.3519e-02  1.6789e-02  4.9837e-01  4.6784e-03  0:00:22 1893
   108  4.1809e-03  2.4573e-02  1.6856e-02  4.5187e-01  4.0826e-03  0:00:17 1892
   109  3.7538e-03  2.5546e-02  1.6827e-02  4.0266e-01  3.6730e-03  0:00:14 1891
   110  3.5456e-03  2.6421e-02  1.6709e-02  3.5220e-01  3.4871e-03  0:06:29 1890

  iter  continuity  x-velocity  y-velocity  z-velocity      energy     time/iter
   111  3.5650e-03  2.7187e-02  1.6508e-02  3.0422e-01  3.5301e-03  0:05:11 1889
   112  3.7784e-03  2.7839e-02  1.6233e-02  2.6386e-01  3.7641e-03  0:04:09 1888
   113  4.1295e-03  2.8374e-02  1.5891e-02  2.3725e-01  4.1303e-03  0:03:19 1887
   114  4.5612e-03  2.8803e-02  1.5491e-02  2.3113e-01  4.5719e-03  0:02:39 1886
   115  5.0314e-03  2.9098e-02  1.5047e-02  2.4951e-01  5.0478e-03  0:02:07 1885
   116  5.5092e-03  2.9270e-02  1.4556e-02  2.8684e-01  5.5282e-03  0:01:42 1884
   117  5.9781e-03  2.9323e-02  1.4021e-02  3.3365e-01  5.9976e-03  0:01:21 1883
   118  6.4239e-03  2.9261e-02  1.3445e-02  3.8318e-01  6.4424e-03  0:01:05 1882
   119  6.8348e-03  2.9087e-02  1.2832e-02  4.3148e-01  6.8512e-03  0:00:52 1881
   120  7.2039e-03  2.8806e-02  1.2190e-02  4.7801e-01  7.2174e-03  0:00:42 1880
   121  7.5235e-03  2.8420e-02  1.1525e-02  5.2267e-01  7.5336e-03  0:00:33 1879

  iter  continuity  x-velocity  y-velocity  z-velocity      energy     time/iter
   122  7.7908e-03  2.7956e-02  1.0831e-02  5.6298e-01  7.7971e-03  0:00:27 1878
   123  7.9997e-03  2.7367e-02  1.0138e-02  5.9554e-01  8.0020e-03  0:00:21 1877
   124  8.1512e-03  2.6669e-02  9.4559e-03  6.2046e-01  8.1493e-03  0:00:17 1876
   125  8.2442e-03  2.5887e-02  8.7849e-03  6.3954e-01  8.2381e-03  0:00:14 1875
   126  8.2765e-03  2.5041e-02  8.1309e-03  6.5381e-01  8.2662e-03  0:06:26 1874
   127  8.2455e-03  2.4135e-02  7.5121e-03  6.6249e-01  8.2311e-03  0:05:08 1873
   128  8.1524e-03  2.3177e-02  6.9465e-03  6.6588e-01  8.1340e-03  0:04:07 1872
   129  7.9976e-03  2.2214e-02  6.4373e-03  6.6385e-01  7.9753e-03  0:03:17 1871
   130  7.7827e-03  2.1237e-02  6.0195e-03  6.5615e-01  7.7568e-03  0:02:38 1870
   131  7.5080e-03  2.0257e-02  5.6985e-03  6.4310e-01  7.4788e-03  0:02:06 1869
   132  7.1755e-03  1.9397e-02  5.4643e-03  6.2457e-01  7.1434e-03  0:01:41 1868

  iter  continuity  x-velocity  y-velocity  z-velocity      energy     time/iter
   133  6.8020e-03  1.8767e-02  5.3912e-03  6.0045e-01  6.7672e-03  0:01:21 1867
   134  6.3668e-03  1.7717e-02  5.5028e-03  5.7218e-01  6.3294e-03  0:01:04 1866
   135  5.8898e-03  1.6881e-02  5.6536e-03  5.3999e-01  5.8502e-03  0:00:52 1865
   136  5.3777e-03  1.6178e-02  5.8626e-03  5.0375e-01  5.3362e-03  0:00:41 1864
   137  4.8397e-03  1.5601e-02  6.1243e-03  4.6578e-01  4.7968e-03  0:00:33 1863
   138  4.2939e-03  1.5186e-02  6.4083e-03  4.2560e-01  4.2501e-03  0:00:26 1862
   139  3.7586e-03  1.4965e-02  6.6976e-03  3.8345e-01  3.7149e-03  0:00:21 1861
   140  3.2655e-03  1.4866e-02  6.9922e-03  3.4175e-01  3.2231e-03  0:00:17 1860
   141  2.8496e-03  1.4877e-02  7.2728e-03  3.0198e-01  2.8105e-03  0:00:13 1859
   142  2.5728e-03  1.5004e-02  7.5223e-03  2.6397e-01  2.5400e-03  0:00:11 1858
   143  2.4864e-03  1.5216e-02  7.7309e-03  2.2950e-01  2.4629e-03  0:06:20 1857

  iter  continuity  x-velocity  y-velocity  z-velocity      energy     time/iter
   144  2.6052e-03  1.5476e-02  7.8929e-03  2.0082e-01  2.5918e-03  0:05:04 1856
   145  2.8849e-03  1.5824e-02  7.9905e-03  1.7939e-01  2.8801e-03  0:04:03 1855
   146  3.2804e-03  1.6235e-02  8.0461e-03  1.6822e-01  3.2816e-03  0:03:14 1854
   147  3.7242e-03  1.6608e-02  8.0543e-03  1.6869e-01  3.7289e-03  0:02:35 1853
   148  4.1886e-03  1.6920e-02  8.0097e-03  1.7937e-01  4.1949e-03  0:02:04 1852
   149  4.6469e-03  1.7168e-02  7.9095e-03  1.9670e-01  4.6536e-03  0:01:39 1851
   150  5.0821e-03  1.7354e-02  7.7533e-03  2.1665e-01  5.0882e-03  0:01:19 1850
   151  5.4786e-03  1.7474e-02  7.5439e-03  2.3669e-01  5.4836e-03  0:01:03 1849
   152  5.8320e-03  1.7521e-02  7.2850e-03  2.5582e-01  5.8354e-03  0:00:51 1848
   153  6.1299e-03  1.7469e-02  6.9781e-03  2.7334e-01  6.1315e-03  0:00:41 1847
   154  6.3654e-03  1.7332e-02  6.6402e-03  2.8835e-01  6.3650e-03  0:00:32 1846

  iter  continuity  x-velocity  y-velocity  z-velocity      energy     time/iter
   155  6.5503e-03  1.7138e-02  6.2519e-03  3.0027e-01  6.5477e-03  0:00:26 1845
   156  6.6641e-03  1.6879e-02  5.8381e-03  3.0900e-01  6.6594e-03  0:00:21 1844
   157  6.7143e-03  1.6559e-02  5.4138e-03  3.1432e-01  6.7074e-03  0:00:17 1843
   158  6.7014e-03  1.6189e-02  4.9890e-03  3.1658e-01  6.6924e-03  0:06:22 1842
   159  6.6325e-03  1.5782e-02  4.5735e-03  3.1586e-01  6.6215e-03  0:05:05 1841
   160  6.5124e-03  1.5358e-02  4.1778e-03  3.1232e-01  6.4996e-03  0:04:04 1840
   161  6.3491e-03  1.4927e-02  3.8177e-03  3.0595e-01  6.3346e-03  0:03:15 1839
   162  6.1608e-03  1.4511e-02  3.5178e-03  2.9737e-01  6.1448e-03  0:02:36 1838
   163  5.9520e-03  1.4121e-02  3.2936e-03  2.8695e-01  5.9348e-03  0:02:05 1837
   164  5.7186e-03  1.3777e-02  3.1576e-03  2.7672e-01  5.7005e-03  0:01:40 1836
   165  5.4605e-03  1.3483e-02  3.1217e-03  2.6448e-01  5.4418e-03  0:01:20 1835

  iter  continuity  x-velocity  y-velocity  z-velocity      energy     time/iter
   166  5.1668e-03  1.3249e-02  3.1830e-03  2.4999e-01  5.1480e-03  0:01:04 1834
   167  4.8934e-03  1.3085e-02  3.3189e-03  2.3409e-01  4.8749e-03  0:00:51 1833
   168  4.6460e-03  1.2981e-02  3.5314e-03  2.1772e-01  4.6281e-03  0:00:41 1832
   169  4.4264e-03  1.2977e-02  3.7627e-03  2.0158e-01  4.4097e-03  0:00:33 1831
   170  4.2492e-03  1.3053e-02  3.9629e-03  1.8610e-01  4.2340e-03  0:00:26 1830
   171  4.1310e-03  1.3180e-02  4.1670e-03  1.7196e-01  4.1177e-03  0:00:21 1829
   172  4.0851e-03  1.3258e-02  4.3855e-03  1.5979e-01  4.0738e-03  0:00:17 1828
   173  4.1235e-03  1.3447e-02  4.5597e-03  1.5040e-01  4.1143e-03  0:00:13 1827
   174  4.2326e-03  1.3648e-02  4.7073e-03  1.4510e-01  4.2252e-03  0:06:16 1826
   175  4.4122e-03  1.3865e-02  4.8120e-03  1.4337e-01  4.4062e-03  0:05:01 1825
   176  4.6322e-03  1.4079e-02  4.8773e-03  1.4495e-01  4.6273e-03  0:04:00 1824

  iter  continuity  x-velocity  y-velocity  z-velocity      energy     time/iter
   177  4.8701e-03  1.4274e-02  4.9071e-03  1.4988e-01  4.8659e-03  0:03:12 1823
   178  5.1205e-03  1.4441e-02  4.9007e-03  1.5696e-01  5.1167e-03  0:02:34 1822
   179  5.3593e-03  1.4577e-02  4.8592e-03  1.6547e-01  5.3556e-03  0:02:03 1821
   180  5.5906e-03  1.4645e-02  4.7905e-03  1.7433e-01  5.5868e-03  0:01:38 1820
   181  5.7948e-03  1.4655e-02  4.6941e-03  1.8311e-01  5.7907e-03  0:01:19 1819
   182  5.9818e-03  1.4642e-02  4.5607e-03  1.9120e-01  5.9773e-03  0:01:03 1818
   183  6.1504e-03  1.4601e-02  4.4033e-03  1.9862e-01  6.1454e-03  0:00:50 1817
   184  6.3060e-03  1.4529e-02  4.2275e-03  2.0522e-01  6.3004e-03  0:00:40 1816
   185  6.4387e-03  1.4425e-02  4.0437e-03  2.1072e-01  6.4324e-03  0:00:32 1815
   186  6.5534e-03  1.4297e-02  3.8533e-03  2.1482e-01  6.5464e-03  0:00:26 1814
   187  6.6560e-03  1.4155e-02  3.6586e-03  2.1731e-01  6.6483e-03  0:00:21 1813

  iter  continuity  x-velocity  y-velocity  z-velocity      energy     time/iter
   188  6.7327e-03  1.4007e-02  3.4645e-03  2.1809e-01  6.7243e-03  0:00:16 1812
   189  6.8063e-03  1.3858e-02  3.2714e-03  2.1751e-01  6.7972e-03  0:06:15 1811
   190  6.8738e-03  1.3699e-02  3.0873e-03  2.1562e-01  6.8640e-03  0:05:00 1810
   191  6.8022e-03  1.3541e-02  2.9144e-03  2.1226e-01  6.7919e-03  0:04:00 1809
   192  6.7130e-03  1.3379e-02  2.7618e-03  2.0778e-01  6.7023e-03  0:03:12 1808
   193  6.6383e-03  1.3232e-02  2.6300e-03  2.0245e-01  6.6272e-03  0:02:33 1807
   194  6.5623e-03  1.3148e-02  2.5217e-03  1.9644e-01  6.5508e-03  0:02:03 1806
   195  6.4334e-03  1.2977e-02  2.4374e-03  1.8958e-01  6.4215e-03  0:01:38 1805
   196  6.3163e-03  1.2890e-02  2.3899e-03  1.8258e-01  6.3043e-03  0:01:18 1804
   197  6.2238e-03  1.2848e-02  2.3745e-03  1.7637e-01  6.2114e-03  0:01:03 1803
   198  6.1326e-03  1.2740e-02  2.3808e-03  1.6864e-01  6.1201e-03  0:00:50 1802

  iter  continuity  x-velocity  y-velocity  z-velocity      energy     time/iter
   199  6.0590e-03  1.2666e-02  2.4163e-03  1.6199e-01  6.0464e-03  0:00:40 1801
   200  6.0262e-03  1.2619e-02  2.4796e-03  1.5629e-01  6.0136e-03  0:00:32 1800
   201  5.9768e-03  1.2494e-02  2.5438e-03  1.5282e-01  5.9641e-03  0:00:26 1799
   202  5.9699e-03  1.2570e-02  2.6303e-03  1.5161e-01  5.9573e-03  0:00:20 1798
   203  5.9350e-03  1.2573e-02  2.7264e-03  1.5263e-01  5.9226e-03  0:00:16 1797
   204  5.9675e-03  1.2487e-02  2.8279e-03  1.5447e-01  5.9552e-03  0:00:13 1796
   205  6.0407e-03  1.2466e-02  2.9298e-03  1.5863e-01  6.0284e-03  0:06:09 1795
   206  6.1702e-03  1.2585e-02  3.0295e-03  1.6347e-01  6.1580e-03  0:04:55 1794
   207  6.2976e-03  1.2518e-02  3.1229e-03  1.6934e-01  6.2855e-03  0:03:56 1793
   208  6.4377e-03  1.2457e-02  3.2028e-03  1.7754e-01  6.4255e-03  0:03:09 1792
   209  6.6492e-03  1.2495e-02  3.2672e-03  1.9078e-01  6.6369e-03  0:02:31 1791

  iter  continuity  x-velocity  y-velocity  z-velocity      energy     time/iter
   210  6.8319e-03  1.2447e-02  3.3140e-03  2.0659e-01  6.8194e-03  0:02:01 1790
   211  7.0082e-03  1.2445e-02  3.3578e-03  2.2420e-01  6.9954e-03  0:01:37 1789
   212  7.1849e-03  1.2393e-02  3.4034e-03  2.4498e-01  7.1719e-03  0:01:17 1788
   213  7.3515e-03  1.2427e-02  3.4492e-03  2.6667e-01  7.3381e-03  0:01:02 1787
   214  7.4890e-03  1.2455e-02  3.4866e-03  2.9671e-01  7.4754e-03  0:00:49 1786
   215  7.5915e-03  1.2421e-02  3.5149e-03  3.1197e-01  7.5777e-03  0:00:39 1785
   216  7.5876e-03  1.2269e-02  3.5529e-03  3.2973e-01  7.5736e-03  0:00:32 1784
   217  7.5115e-03  1.2100e-02  3.5691e-03  3.4863e-01  7.4975e-03  0:00:25 1783
   218  7.3745e-03  1.1953e-02  3.5661e-03  3.6118e-01  7.3604e-03  0:00:20 1782
   219  7.0572e-03  1.1862e-02  3.5718e-03  3.7615e-01  7.0433e-03  0:00:16 1781
   220  6.6276e-03  1.1754e-02  3.5711e-03  3.9734e-01  6.6142e-03  0:06:09 1780

  iter  continuity  x-velocity  y-velocity  z-velocity      energy     time/iter
   221  6.1775e-03  1.1629e-02  3.5818e-03  4.2390e-01  6.1644e-03  0:04:55 1779
   222  5.7388e-03  1.1470e-02  3.5954e-03  4.4823e-01  5.7259e-03  0:03:56 1778
   223  5.3913e-03  1.1337e-02  3.6130e-03  4.6487e-01  5.3783e-03  0:03:09 1777
   224  5.0862e-03  1.1108e-02  3.6320e-03  4.9072e-01  5.0727e-03  0:02:31 1776
   225  4.8735e-03  1.0826e-02  3.6722e-03  5.3414e-01  4.8591e-03  0:02:01 1775
   226  4.7802e-03  1.0615e-02  3.7167e-03  5.6703e-01  4.7647e-03  0:01:36 1774
   227  4.7899e-03  1.0491e-02  3.7633e-03  5.9269e-01  4.7730e-03  0:01:17 1773
   228  4.8531e-03  1.0439e-02  3.8397e-03  6.0737e-01  4.8348e-03  0:01:02 1772
   229  4.9162e-03  1.0317e-02  3.9253e-03  6.1322e-01  4.8965e-03  0:00:49 1771
   230  4.9323e-03  1.0225e-02  4.0093e-03  6.8599e-01  4.9110e-03  0:00:39 1770
   231  4.8837e-03  1.0062e-02  4.0818e-03  6.7272e-01  4.8609e-03  0:00:31 1769

  iter  continuity  x-velocity  y-velocity  z-velocity      energy     time/iter
   232  4.8318e-03  9.9579e-03  4.1549e-03  6.5746e-01  4.8074e-03  0:00:25 1768
   233  4.7668e-03  9.9229e-03  4.2323e-03  6.7082e-01  4.7408e-03  0:00:20 1767
   234  4.7571e-03  9.9223e-03  4.3174e-03  6.5454e-01  4.7296e-03  0:00:16 1766
   235  4.8547e-03  9.9780e-03  4.4064e-03  6.3206e-01  4.8261e-03  0:06:06 1765
   236  5.0416e-03  1.0072e-02  4.4866e-03  6.1235e-01  5.0123e-03  0:04:53 1764
   237  5.2871e-03  1.0234e-02  4.5640e-03  6.0364e-01  5.2575e-03  0:03:54 1763
   238  5.4881e-03  1.0476e-02  4.6344e-03  6.3597e-01  5.4582e-03  0:03:07 1762
   239  5.6353e-03  1.0713e-02  4.7091e-03  6.9547e-01  5.6051e-03  0:02:30 1761
   240  5.6798e-03  1.0961e-02  4.7920e-03  7.6789e-01  5.6492e-03  0:02:00 1760
   241  5.7031e-03  1.1193e-02  4.8925e-03  9.3341e-01  5.6721e-03  0:01:36 1759
   242  5.7129e-03  1.1387e-02  5.0163e-03  1.0849e+00  5.6817e-03  0:01:16 1758

  iter  continuity  x-velocity  y-velocity  z-velocity      energy     time/iter
   243  5.7016e-03  1.1599e-02  5.1517e-03  1.2386e+00  5.6702e-03  0:01:01 1757
   244  5.6496e-03  1.1788e-02  5.2898e-03  1.3105e+00  5.6180e-03  0:00:49 1756
   245  5.6350e-03  1.1957e-02  5.4168e-03  1.3814e+00  5.6035e-03  0:00:39 1755
   246  5.6574e-03  1.2080e-02  5.5199e-03  1.4035e+00  5.6264e-03  0:06:22 1754
   247  5.6470e-03  1.2167e-02  5.5907e-03  1.3511e+00  5.6166e-03  0:05:05 1753
   248  5.5765e-03  1.2235e-02  5.6274e-03  1.3232e+00  5.5467e-03  0:04:04 1752
   249  5.4468e-03  1.2282e-02  5.6563e-03  1.3023e+00  5.4176e-03  0:03:15 1751
   250  5.2633e-03  1.2211e-02  5.6663e-03  1.2305e+00  5.2348e-03  0:02:36 1750
   251  5.0963e-03  1.2183e-02  5.6563e-03  1.1942e+00  5.0686e-03  0:02:05 1749
   252  4.9343e-03  1.2201e-02  5.6314e-03  1.1391e+00  4.9077e-03  0:01:40 1748
   253  4.8139e-03  1.2169e-02  5.5968e-03  1.0840e+00  4.7887e-03  0:01:20 1747

  iter  continuity  x-velocity  y-velocity  z-velocity      energy     time/iter
   254  4.7903e-03  1.2075e-02  5.5549e-03  1.0537e+00  4.7670e-03  0:01:04 1746
   255  4.8434e-03  1.1978e-02  5.5034e-03  1.0292e+00  4.8220e-03  0:00:51 1745
   256  4.9378e-03  1.1863e-02  5.4530e-03  1.0150e+00  4.9185e-03  0:00:41 1744
   257  5.0965e-03  1.1723e-02  5.4043e-03  1.0076e+00  5.0793e-03  0:00:33 1743
   258  5.2552e-03  1.1585e-02  5.3597e-03  1.0062e+00  5.2400e-03  0:00:26 1742
   259  5.4150e-03  1.1448e-02  5.3114e-03  1.0116e+00  5.4016e-03  0:00:21 1741
   260  5.5150e-03  1.1351e-02  5.2505e-03  1.0103e+00  5.5033e-03  0:00:17 1740
   261  5.5097e-03  1.1303e-02  5.1730e-03  1.0054e+00  5.4995e-03  0:06:01 1739
   262  5.3738e-03  1.1259e-02  5.0790e-03  1.0133e+00  5.3651e-03  0:04:49 1738
   263  5.2116e-03  1.1298e-02  4.9767e-03  1.0167e+00  5.2041e-03  0:03:51 1737
   264  5.0869e-03  1.1429e-02  4.8764e-03  9.8840e-01  5.0806e-03  0:03:05 1736

  iter  continuity  x-velocity  y-velocity  z-velocity      energy     time/iter
   265  5.0645e-03  1.1587e-02  4.7749e-03  9.7756e-01  5.0591e-03  0:02:28 1735
   266  5.1580e-03  1.1767e-02  4.6771e-03  9.8561e-01  5.1534e-03  0:01:58 1734
   267  5.3561e-03  1.2013e-02  4.5891e-03  9.8581e-01  5.3518e-03  0:01:34 1733
   268  5.6416e-03  1.2318e-02  4.5292e-03  9.5048e-01  5.6376e-03  0:01:15 1732
   269  5.8921e-03  1.2515e-02  4.4741e-03  9.1359e-01  5.8882e-03  0:01:00 1731
   270  5.9616e-03  1.2701e-02  4.4389e-03  8.8448e-01  5.9578e-03  0:00:48 1730
   271  5.9945e-03  1.2733e-02  4.3907e-03  8.4830e-01  5.9907e-03  0:00:39 1729
   272  5.9777e-03  1.2531e-02  4.3473e-03  7.9609e-01  5.9737e-03  0:00:31 1728
   273  5.8910e-03  1.2182e-02  4.3181e-03  7.5067e-01  5.8869e-03  0:00:25 1727
   274  5.7388e-03  1.1759e-02  4.2764e-03  7.1013e-01  5.7345e-03  0:00:20 1726
   275  5.6894e-03  1.1363e-02  4.2304e-03  6.5879e-01  5.6848e-03  0:00:16 1725

  iter  continuity  x-velocity  y-velocity  z-velocity      energy     time/iter
   276  5.7671e-03  1.0991e-02  4.1632e-03  6.0823e-01  5.7624e-03  0:00:13 1724
   277  5.8594e-03  1.0607e-02  4.0649e-03  5.7160e-01  5.8547e-03  0:05:55 1723
   278  5.9664e-03  1.0276e-02  3.9365e-03  5.5181e-01  5.9619e-03  0:04:44 1722
   279  5.9775e-03  1.0065e-02  3.8066e-03  5.4092e-01  5.9733e-03  0:03:47 1721
   280  5.7552e-03  9.9185e-03  3.7146e-03  5.3754e-01  5.7512e-03  0:03:01 1720
   281  5.3750e-03  9.8526e-03  3.6160e-03  5.3278e-01  5.3714e-03  0:02:25 1719
   282  4.9522e-03  9.8262e-03  3.4916e-03  5.3301e-01  4.9491e-03  0:01:56 1718
   283  4.5922e-03  9.8016e-03  3.3464e-03  5.3160e-01  4.5893e-03  0:01:33 1717
   284  4.5178e-03  9.7485e-03  3.1670e-03  5.2161e-01  4.5150e-03  0:01:14 1716
   285  4.7827e-03  9.6569e-03  2.9587e-03  5.0523e-01  4.7796e-03  0:00:59 1715
   286  5.0578e-03  9.4843e-03  2.7401e-03  4.8295e-01  5.0544e-03  0:00:47 1714

  iter  continuity  x-velocity  y-velocity  z-velocity      energy     time/iter
   287  5.2658e-03  9.2789e-03  2.5403e-03  4.7037e-01  5.2622e-03  0:00:38 1713
   288  5.5802e-03  9.0503e-03  2.3614e-03  4.7207e-01  5.5762e-03  0:00:30 1712
   289  5.8582e-03  8.8044e-03  2.2200e-03  4.7154e-01  5.8539e-03  0:00:24 1711
   290  5.8510e-03  8.5645e-03  2.1396e-03  4.6965e-01  5.8464e-03  0:00:19 1710
   291  5.5106e-03  8.3675e-03  2.0955e-03  4.7020e-01  5.5058e-03  0:00:15 1709
   292  5.1049e-03  8.2337e-03  2.0795e-03  4.7239e-01  5.0999e-03  0:00:12 1708
   293  4.9920e-03  8.2126e-03  2.1004e-03  4.8373e-01  4.9868e-03  0:05:51 1707
   294  4.9357e-03  8.2973e-03  2.1391e-03  4.9960e-01  4.9304e-03  0:04:41 1706
   295  4.9927e-03  8.4485e-03  2.1784e-03  5.1518e-01  4.9875e-03  0:03:45 1705
   296  5.1594e-03  8.6529e-03  2.2367e-03  5.2344e-01  5.1543e-03  0:03:00 1704
   297  5.2541e-03  8.8231e-03  2.3167e-03  5.2927e-01  5.2491e-03  0:02:24 1703

  iter  continuity  x-velocity  y-velocity  z-velocity      energy     time/iter
   298  5.1364e-03  8.9210e-03  2.3823e-03  5.3121e-01  5.1312e-03  0:01:55 1702
   299  4.8632e-03  8.9767e-03  2.4233e-03  5.2919e-01  4.8579e-03  0:01:32 1701
   300  4.8315e-03  9.0183e-03  2.4200e-03  5.2950e-01  4.8262e-03  0:01:13 1700
   301  5.1472e-03  9.0200e-03  2.3882e-03  5.2810e-01  5.1420e-03  0:00:59 1699
   302  5.6029e-03  8.9781e-03  2.3400e-03  5.3416e-01  5.5977e-03  0:00:47 1698
   303  5.9938e-03  8.9183e-03  2.3505e-03  5.4231e-01  5.9885e-03  0:00:37 1697
   304  6.2127e-03  8.7788e-03  2.4269e-03  5.4767e-01  6.2073e-03  0:00:30 1696
   305  6.2800e-03  8.5916e-03  2.5394e-03  5.5560e-01  6.2744e-03  0:00:24 1695
   306  6.1372e-03  8.4605e-03  2.6371e-03  5.6104e-01  6.1313e-03  0:00:19 1694
   307  5.6166e-03  8.3327e-03  2.6720e-03  5.5483e-01  5.6103e-03  0:00:15 1693
   308  4.9969e-03  8.2031e-03  2.6476e-03  5.3530e-01  4.9903e-03  0:00:12 1692

  iter  continuity  x-velocity  y-velocity  z-velocity      energy     time/iter
   309  4.4999e-03  8.0926e-03  2.5870e-03  5.3705e-01  4.4930e-03  0:05:48 1691
   310  4.3732e-03  8.0162e-03  2.5055e-03  5.5277e-01  4.3662e-03  0:04:38 1690
   311  4.7354e-03  7.9866e-03  2.4077e-03  5.7500e-01  4.7289e-03  0:03:42 1689
   312  4.9352e-03  7.8932e-03  2.2869e-03  5.9501e-01  4.9289e-03  0:02:58 1688
   313  4.9702e-03  7.8237e-03  2.2068e-03  6.1582e-01  4.9639e-03  0:02:22 1687
   314  4.9803e-03  7.7726e-03  2.1736e-03  6.2875e-01  4.9742e-03  0:01:54 1686
   315  4.6626e-03  7.7001e-03  2.1431e-03  6.4261e-01  4.6563e-03  0:01:31 1685
   316  4.3331e-03  7.5349e-03  2.1469e-03  6.5658e-01  4.3266e-03  0:01:13 1684
   317  4.0952e-03  7.3600e-03  2.1935e-03  6.7177e-01  4.0888e-03  0:00:58 1683
   318  3.9931e-03  7.1984e-03  2.2370e-03  6.7908e-01  3.9868e-03  0:00:46 1682
   319  3.8761e-03  7.0995e-03  2.3555e-03  6.8719e-01  3.8700e-03  0:00:37 1681

  iter  continuity  x-velocity  y-velocity  z-velocity      energy     time/iter
   320  3.7278e-03  7.0654e-03  2.5219e-03  6.9561e-01  3.7218e-03  0:00:30 1680
   321  3.5544e-03  7.1054e-03  2.6991e-03  7.0789e-01  3.5485e-03  0:00:24 1679
   322  3.2564e-03  7.2445e-03  2.8534e-03  7.1992e-01  3.2506e-03  0:00:19 1678
   323  2.9647e-03  7.4337e-03  2.9471e-03  7.3790e-01  2.9591e-03  0:00:15 1677
   324  2.7693e-03  7.6147e-03  2.9788e-03  7.6675e-01  2.7640e-03  0:00:12 1676
   325  2.7752e-03  7.7535e-03  2.9664e-03  8.0024e-01  2.7704e-03  0:05:45 1675
   326  2.7962e-03  7.8547e-03  2.9093e-03  8.3732e-01  2.7919e-03  0:04:36 1674
   327  2.8282e-03  7.9276e-03  2.8294e-03  1.0244e+00  2.8243e-03  0:03:40 1673
   328  2.9232e-03  7.9528e-03  2.7484e-03  1.0409e+00  2.9198e-03  0:02:56 1672
   329  2.9280e-03  7.9585e-03  2.6944e-03  1.0036e+00  2.9246e-03  0:02:21 1671
   330  2.9281e-03  7.9487e-03  2.6784e-03  9.7564e-01  2.9248e-03  0:01:53 1670

  iter  continuity  x-velocity  y-velocity  z-velocity      energy     time/iter
   331  2.9676e-03  7.9201e-03  2.7124e-03  9.5129e-01  2.9644e-03  0:01:30 1669
   332  2.9990e-03  7.9464e-03  2.7764e-03  9.1634e-01  2.9958e-03  0:01:12 1668
   333  2.9368e-03  8.0031e-03  2.8512e-03  8.9949e-01  2.9335e-03  0:00:58 1667
   334  2.8208e-03  8.0865e-03  2.9290e-03  8.8155e-01  2.8174e-03  0:00:46 1666
   335  2.7192e-03  8.1895e-03  2.9927e-03  8.5582e-01  2.7157e-03  0:00:37 1665
   336  2.6543e-03  8.2725e-03  3.0274e-03  8.2512e-01  2.6507e-03  0:00:29 1664
   337  2.6344e-03  8.3372e-03  3.0151e-03  8.1965e-01  2.6307e-03  0:00:24 1663
   338  2.6764e-03  8.3679e-03  2.9721e-03  8.4352e-01  2.6726e-03  0:00:19 1662
   339  2.7687e-03  8.3684e-03  2.8968e-03  8.9303e-01  2.7649e-03  0:00:15 1661
   340  2.9142e-03  8.3388e-03  2.8094e-03  9.6980e-01  2.9103e-03  0:05:44 1660
   341  3.1018e-03  8.2766e-03  2.7109e-03  1.0525e+00  3.0979e-03  0:04:35 1659

  iter  continuity  x-velocity  y-velocity  z-velocity      energy     time/iter
   342  3.2591e-03  8.2153e-03  2.5973e-03  1.1339e+00  3.2550e-03  0:03:40 1658
   343  3.3418e-03  8.1913e-03  2.5135e-03  1.1955e+00  3.3374e-03  0:02:56 1657
   344  3.3480e-03  8.1998e-03  2.4715e-03  1.2396e+00  3.3433e-03  0:02:21 1656
   345  3.3224e-03  8.2138e-03  2.4781e-03  1.2450e+00  3.3173e-03  0:01:52 1655
   346  3.3017e-03  8.2570e-03  2.5425e-03  1.2296e+00  3.2961e-03  0:01:30 1654
   347  3.2859e-03  8.3282e-03  2.7682e-03  1.1762e+00  3.2799e-03  0:01:12 1653
   348  3.2378e-03  8.3349e-03  2.7821e-03  1.1165e+00  3.2313e-03  0:00:57 1652
   349  3.1309e-03  8.3928e-03  2.8181e-03  1.0394e+00  3.1241e-03  0:00:46 1651
   350  2.8741e-03  8.4163e-03  2.8968e-03  9.5627e-01  2.8666e-03  0:00:37 1650
   351  2.6431e-03  8.4117e-03  2.9352e-03  8.8371e-01  2.6349e-03  0:00:29 1649
   352  2.4483e-03  8.3717e-03  2.9226e-03  8.4334e-01  2.4392e-03  0:00:23 1648

  iter  continuity  x-velocity  y-velocity  z-velocity      energy     time/iter
   353  2.3438e-03  8.3216e-03  2.8797e-03  8.5595e-01  2.3342e-03  0:00:19 1647
   354  2.3584e-03  8.2937e-03  2.8932e-03  9.1085e-01  2.3489e-03  0:05:44 1646
   355  2.4567e-03  8.2368e-03  2.8651e-03  9.9050e-01  2.4472e-03  0:04:35 1645
   356  2.6083e-03  8.1770e-03  2.7552e-03  1.0851e+00  2.5991e-03  0:03:40 1644
   357  2.7568e-03  8.1252e-03  2.6639e-03  1.1622e+00  2.7477e-03  0:02:56 1643
   358  2.8813e-03  8.0615e-03  2.6099e-03  1.1953e+00  2.8722e-03  0:02:21 1642
   359  2.9474e-03  7.9998e-03  2.5730e-03  1.2265e+00  2.9381e-03  0:01:52 1641
   360  2.9288e-03  7.9493e-03  2.5265e-03  1.2091e+00  2.9192e-03  0:01:30 1640
   361  2.8460e-03  7.9023e-03  2.4887e-03  1.1551e+00  2.8360e-03  0:01:12 1639
   362  2.7397e-03  7.8553e-03  2.4497e-03  1.0710e+00  2.7293e-03  0:00:57 1638
   363  2.6231e-03  7.7960e-03  2.4041e-03  9.8724e-01  2.6122e-03  0:00:46 1637

  iter  continuity  x-velocity  y-velocity  z-velocity      energy     time/iter
   364  2.5116e-03  7.7373e-03  2.3908e-03  8.9805e-01  2.5003e-03  0:00:37 1636
   365  2.4305e-03  7.6853e-03  2.3916e-03  8.2559e-01  2.4189e-03  0:00:29 1635
   366  2.3694e-03  7.6359e-03  2.3906e-03  7.6746e-01  2.3576e-03  0:00:23 1634
   367  2.3339e-03  7.5840e-03  2.3898e-03  7.2139e-01  2.3220e-03  0:00:19 1633
   368  2.3111e-03  7.5338e-03  2.3814e-03  6.8839e-01  2.2992e-03  0:00:15 1632
   369  2.2867e-03  7.4829e-03  2.3657e-03  6.6029e-01  2.2747e-03  0:00:12 1631
   370  2.2771e-03  7.4308e-03  2.3502e-03  6.4704e-01  2.2652e-03  0:05:36 1630
   371  2.2745e-03  7.3778e-03  2.3383e-03  6.4681e-01  2.2627e-03  0:04:28 1629
   372  2.2799e-03  7.3308e-03  2.3248e-03  6.4994e-01  2.2680e-03  0:03:35 1628
   373  2.2851e-03  7.2838e-03  2.3022e-03  6.5432e-01  2.2733e-03  0:02:52 1627
   374  2.2893e-03  7.2331e-03  2.2800e-03  6.5794e-01  2.2776e-03  0:02:17 1626

  iter  continuity  x-velocity  y-velocity  z-velocity      energy     time/iter
   375  2.2913e-03  7.1769e-03  2.2595e-03  6.6563e-01  2.2796e-03  0:01:50 1625
   376  2.2882e-03  7.1148e-03  2.2391e-03  6.7517e-01  2.2765e-03  0:01:28 1624
   377  2.2798e-03  7.0521e-03  2.2194e-03  6.9005e-01  2.2680e-03  0:01:10 1623
   378  2.2666e-03  6.9874e-03  2.2008e-03  7.1150e-01  2.2546e-03  0:00:56 1622
   379  2.2391e-03  6.9252e-03  2.1837e-03  7.4284e-01  2.2269e-03  0:00:45 1621
   380  2.1961e-03  6.8629e-03  2.1684e-03  7.7998e-01  2.1837e-03  0:00:36 1620
   381  2.1482e-03  6.7991e-03  2.1543e-03  8.1169e-01  2.1354e-03  0:00:29 1619
   382  2.0992e-03  6.7354e-03  2.1410e-03  8.3885e-01  2.0861e-03  0:00:23 1618
   383  2.0571e-03  6.6731e-03  2.1290e-03  8.4636e-01  2.0437e-03  0:00:18 1617
   384  2.0226e-03  6.6121e-03  2.1175e-03  8.5419e-01  2.0088e-03  0:00:15 1616
   385  1.9879e-03  6.5523e-03  2.1067e-03  8.7383e-01  1.9738e-03  0:05:35 1615

  iter  continuity  x-velocity  y-velocity  z-velocity      energy     time/iter
   386  1.9514e-03  6.4934e-03  2.0977e-03  9.0606e-01  1.9369e-03  0:04:28 1614
   387  1.9150e-03  6.4348e-03  2.0903e-03  9.2894e-01  1.9000e-03  0:03:34 1613
   388  1.8814e-03  6.3772e-03  2.0841e-03  9.5806e-01  1.8659e-03  0:02:51 1612
   389  1.8481e-03  6.3198e-03  2.0789e-03  9.8649e-01  1.8322e-03  0:02:17 1611
   390  1.8174e-03  6.2636e-03  2.0748e-03  1.0201e+00  1.8009e-03  0:01:49 1610
   391  1.7896e-03  6.2097e-03  2.0725e-03  1.0478e+00  1.7727e-03  0:01:27 1609
   392  1.7641e-03  6.1558e-03  2.0717e-03  1.0805e+00  1.7466e-03  0:01:10 1608
   393  1.7434e-03  6.1021e-03  2.0728e-03  1.1061e+00  1.7255e-03  0:00:56 1607
   394  1.7295e-03  6.0489e-03  2.0759e-03  1.1166e+00  1.7111e-03  0:00:45 1606
   395  1.7190e-03  5.9967e-03  2.0813e-03  1.1293e+00  1.7001e-03  0:00:36 1605
   396  1.7113e-03  5.9462e-03  2.0888e-03  1.1495e+00  1.6919e-03  0:00:29 1604

  iter  continuity  x-velocity  y-velocity  z-velocity      energy     time/iter
   397  1.7071e-03  5.8992e-03  2.0984e-03  1.1620e+00  1.6873e-03  0:00:23 1603
   398  1.7049e-03  5.8541e-03  2.1101e-03  1.1667e+00  1.6847e-03  0:00:18 1602
   399  1.7047e-03  5.8123e-03  2.1245e-03  1.1669e+00  1.6840e-03  0:05:35 1601
   400  1.7069e-03  5.7738e-03  2.1415e-03  1.1727e+00  1.6859e-03  0:04:28 1600
   401  1.7112e-03  5.7389e-03  2.1612e-03  1.2020e+00  1.6897e-03  0:03:34 1599
   402  1.7168e-03  5.7068e-03  2.1835e-03  1.2168e+00  1.6950e-03  0:02:51 1598
   403  1.7249e-03  5.6776e-03  2.2077e-03  1.2227e+00  1.7027e-03  0:02:17 1597
   404  1.7315e-03  5.6505e-03  2.2225e-03  1.2255e+00  1.7089e-03  0:01:49 1596
   405  1.7362e-03  5.6273e-03  2.2392e-03  1.2639e+00  1.7132e-03  0:01:27 1595
   406  1.7411e-03  5.6084e-03  2.2621e-03  1.3056e+00  1.7176e-03  0:01:10 1594
   407  1.7475e-03  5.5940e-03  2.2878e-03  1.3497e+00  1.7236e-03  0:00:56 1593

  iter  continuity  x-velocity  y-velocity  z-velocity      energy     time/iter
   408  1.7553e-03  5.5837e-03  2.3150e-03  1.3808e+00  1.7311e-03  0:00:45 1592
   409  1.7642e-03  5.5753e-03  2.3433e-03  1.3831e+00  1.7396e-03  0:00:36 1591
   410  1.7743e-03  5.5703e-03  2.3724e-03  1.3927e+00  1.7494e-03  0:00:29 1590
   411  1.7860e-03  5.5699e-03  2.4024e-03  1.3866e+00  1.7606e-03  0:00:23 1589
   412  1.7988e-03  5.5731e-03  2.4335e-03  1.4123e+00  1.7731e-03  0:00:18 1588
   413  1.8167e-03  5.5802e-03  2.4657e-03  1.4697e+00  1.7907e-03  0:05:32 1587
   414  1.8367e-03  5.5945e-03  2.4990e-03  1.5483e+00  1.8105e-03  0:04:25 1586
   415  1.8571e-03  5.6172e-03  2.5320e-03  1.6630e+00  1.8307e-03  0:03:32 1585
   416  1.8762e-03  5.6446e-03  2.5670e-03  1.9618e+00  1.8496e-03  0:02:50 1584
   417  1.8948e-03  5.6753e-03  2.6030e-03  2.2387e+00  1.8679e-03  0:02:16 1583
   418  1.9111e-03  5.7072e-03  2.6401e-03  2.5123e+00  1.8840e-03  0:01:48 1582

  iter  continuity  x-velocity  y-velocity  z-velocity      energy     time/iter
   419  1.9265e-03  5.7404e-03  2.6776e-03  2.7235e+00  1.8992e-03  0:01:27 1581
   420  1.9423e-03  5.7725e-03  2.7155e-03  2.8440e+00  1.9147e-03  0:01:09 1580
   421  1.9568e-03  5.8070e-03  2.7540e-03  2.9619e+00  1.9290e-03  0:00:55 1579
   422  1.9683e-03  5.8458e-03  2.7930e-03  3.0870e+00  1.9403e-03  0:00:44 1578
   423  1.9789e-03  5.8878e-03  2.8329e-03  3.1947e+00  1.9507e-03  0:00:35 1577
   424  1.9881e-03  5.9254e-03  2.8722e-03  3.2496e+00  1.9596e-03  0:00:28 1576
   425  1.9963e-03  5.9641e-03  2.9109e-03  3.2370e+00  1.9676e-03  0:00:23 1575
   426  2.0018e-03  6.0020e-03  2.9488e-03  3.1597e+00  1.9729e-03  0:00:18 1574
   427  2.0059e-03  6.0444e-03  2.9850e-03  3.0711e+00  1.9767e-03  0:00:14 1573
   428  2.0076e-03  6.0885e-03  3.0192e-03  3.0121e+00  1.9782e-03  0:00:12 1572
   429  2.0087e-03  6.1288e-03  3.0512e-03  2.9441e+00  1.9791e-03  0:05:23 1571

  iter  continuity  x-velocity  y-velocity  z-velocity      energy     time/iter
   430  2.0065e-03  6.1676e-03  3.0808e-03  2.8922e+00  1.9768e-03  0:04:19 1570
   431  2.0025e-03  6.2052e-03  3.1078e-03  2.9045e+00  1.9726e-03  0:03:27 1569
   432  1.9986e-03  6.2424e-03  3.1329e-03  3.0271e+00  1.9685e-03  0:02:45 1568
   433  1.9936e-03  6.2794e-03  3.1542e-03  3.1285e+00  1.9633e-03  0:02:12 1567
   434  1.9892e-03  6.3161e-03  3.1736e-03  3.1802e+00  1.9589e-03  0:01:46 1566
   435  1.9851e-03  6.3494e-03  3.1906e-03  3.1636e+00  1.9548e-03  0:01:24 1565
   436  1.9822e-03  6.3775e-03  3.2046e-03  3.0727e+00  1.9518e-03  0:01:08 1564
   437  1.9773e-03  6.3958e-03  3.2158e-03  2.9681e+00  1.9468e-03  0:00:54 1563
   438  1.9631e-03  6.4088e-03  3.2249e-03  2.8219e+00  1.9325e-03  0:00:43 1562
   439  1.9459e-03  6.4223e-03  3.2313e-03  2.6560e+00  1.9152e-03  0:00:35 1561
   440  1.9267e-03  6.4378e-03  3.2351e-03  2.4682e+00  1.8958e-03  0:00:28 1560

  iter  continuity  x-velocity  y-velocity  z-velocity      energy     time/iter
   441  1.9074e-03  6.4532e-03  3.2361e-03  2.2724e+00  1.8763e-03  0:00:22 1559
   442  1.8880e-03  6.4681e-03  3.2348e-03  2.0858e+00  1.8568e-03  0:00:18 1558
   443  1.8656e-03  6.4780e-03  3.2312e-03  1.9085e+00  1.8342e-03  0:00:14 1557
   444  1.8410e-03  6.4814e-03  3.2256e-03  1.7353e+00  1.8094e-03  0:00:11 1556
   445  1.8129e-03  6.4737e-03  3.2181e-03  1.5917e+00  1.7810e-03  0:05:20 1555
   446  1.7864e-03  6.4655e-03  3.2087e-03  1.4634e+00  1.7542e-03  0:04:16 1554
   447  1.7580e-03  6.4552e-03  3.1972e-03  1.3553e+00  1.7256e-03  0:03:25 1553
   448  1.7296e-03  6.4393e-03  3.1843e-03  1.2599e+00  1.6969e-03  0:02:44 1552
   449  1.7041e-03  6.4211e-03  3.1692e-03  1.1731e+00  1.6713e-03  0:02:11 1551
   450  1.6793e-03  6.3978e-03  3.1526e-03  1.0956e+00  1.6463e-03  0:01:45 1550
   451  1.6562e-03  6.3731e-03  3.1348e-03  1.0270e+00  1.6230e-03  0:01:24 1549

  iter  continuity  x-velocity  y-velocity  z-velocity      energy     time/iter
   452  1.6331e-03  6.3411e-03  3.1150e-03  9.6442e-01  1.5998e-03  0:01:07 1548
   453  1.6120e-03  6.3034e-03  3.0940e-03  8.9995e-01  1.5787e-03  0:00:53 1547
   454  1.5933e-03  6.2659e-03  3.0718e-03  8.4652e-01  1.5600e-03  0:00:43 1546
   455  1.5745e-03  6.2297e-03  3.0487e-03  8.0809e-01  1.5413e-03  0:00:34 1545
   456  1.5561e-03  6.1957e-03  3.0249e-03  7.6588e-01  1.5229e-03  0:00:27 1544
   457  1.5381e-03  6.1615e-03  3.0008e-03  7.4170e-01  1.5051e-03  0:00:22 1543
   458  1.5198e-03  6.1289e-03  2.9763e-03  7.2918e-01  1.4870e-03  0:00:17 1542
   459  1.5012e-03  6.1007e-03  2.9513e-03  7.0373e-01  1.4686e-03  0:00:14 1541
   460  1.4814e-03  6.0722e-03  2.9256e-03  6.7525e-01  1.4490e-03  0:00:11 1540
   461  1.4622e-03  6.0480e-03  2.8996e-03  6.5343e-01  1.4301e-03  0:05:17 1539
   462  1.4405e-03  6.0190e-03  2.8731e-03  6.2835e-01  1.4086e-03  0:04:13 1538

  iter  continuity  x-velocity  y-velocity  z-velocity      energy     time/iter
   463  1.4177e-03  5.9910e-03  2.8463e-03  5.9912e-01  1.3862e-03  0:03:22 1537
   464  1.3970e-03  5.9641e-03  2.8190e-03  5.7321e-01  1.3658e-03  0:02:42 1536
   465  1.3733e-03  5.9435e-03  2.7914e-03  5.4607e-01  1.3425e-03  0:02:09 1535
   466  1.3487e-03  5.9269e-03  2.7629e-03  5.1928e-01  1.3182e-03  0:01:43 1534
   467  1.3248e-03  5.9157e-03  2.7342e-03  4.9701e-01  1.2948e-03  0:01:23 1533
   468  1.3000e-03  5.9044e-03  2.7052e-03  4.7572e-01  1.2705e-03  0:01:06 1532
   469  1.2742e-03  5.8923e-03  2.6761e-03  4.5487e-01  1.2451e-03  0:00:53 1531
   470  1.2482e-03  5.8839e-03  2.6469e-03  4.3424e-01  1.2197e-03  0:00:42 1530
   471  1.2219e-03  5.8769e-03  2.6171e-03  4.1417e-01  1.1939e-03  0:00:34 1529
   472  1.1935e-03  5.8686e-03  2.5865e-03  3.9286e-01  1.1660e-03  0:00:27 1528
   473  1.1559e-03  5.8422e-03  2.5549e-03  3.6932e-01  1.1286e-03  0:05:27 1527

  iter  continuity  x-velocity  y-velocity  z-velocity      energy     time/iter
   474  1.1233e-03  5.8197e-03  2.5222e-03  3.5498e-01  1.0965e-03  0:04:21 1526
   475  1.0897e-03  5.7997e-03  2.4887e-03  3.4538e-01  1.0633e-03  0:03:29 1525
   476  1.0573e-03  5.7794e-03  2.4541e-03  3.3689e-01  1.0314e-03  0:02:47 1524
   477  1.0269e-03  5.7540e-03  2.4179e-03  3.2760e-01  1.0014e-03  0:02:14 1523
   478  9.9564e-04  5.7218e-03  2.3810e-03  3.1471e-01  9.7063e-04  0:01:47 1522
   479  9.6520e-04  5.6887e-03  2.3429e-03  3.0231e-01  9.4066e-04  0:01:25 1521
   480  9.3599e-04  5.6451e-03  2.3046e-03  2.9082e-01  9.1194e-04  0:01:08 1520
   481  9.1017e-04  5.6026e-03  2.2654e-03  2.8241e-01  8.8668e-04  0:00:55 1519
   482  8.8497e-04  5.5577e-03  2.2246e-03  2.7141e-01  8.6202e-04  0:00:44 1518
   483  8.5961e-04  5.5101e-03  2.1834e-03  2.6201e-01  8.3714e-04  0:00:35 1517
   484  8.3630e-04  5.4596e-03  2.1412e-03  2.5388e-01  8.1434e-04  0:00:28 1516

  iter  continuity  x-velocity  y-velocity  z-velocity      energy     time/iter
   485  8.1499e-04  5.4067e-03  2.0983e-03  2.4627e-01  7.9351e-04  0:00:22 1515
   486  7.9463e-04  5.3518e-03  2.0551e-03  2.3775e-01  7.7363e-04  0:00:18 1514
   487  7.7574e-04  5.2952e-03  2.0119e-03  2.2931e-01  7.5521e-04  0:00:14 1513
   488  7.6119e-04  5.2339e-03  1.9683e-03  2.2203e-01  7.4116e-04  0:00:11 1512
   489  7.4775e-04  5.1734e-03  1.9246e-03  2.1878e-01  7.2820e-04  0:05:11 1511
   490  7.3154e-04  5.1100e-03  1.8812e-03  2.1566e-01  7.1235e-04  0:04:09 1510
   491  7.1690e-04  5.0473e-03  1.8380e-03  2.1175e-01  6.9803e-04  0:03:19 1509
   492  7.0425e-04  4.9889e-03  1.7953e-03  2.0674e-01  6.8570e-04  0:02:39 1508
   493  6.9533e-04  4.9294e-03  1.7529e-03  2.0036e-01  6.7712e-04  0:02:07 1507
   494  6.9123e-04  4.8661e-03  1.7112e-03  1.9358e-01  6.7339e-04  0:01:42 1506
   495  6.8680e-04  4.8018e-03  1.6721e-03  1.8763e-01  6.6926e-04  0:01:21 1505

  iter  continuity  x-velocity  y-velocity  z-velocity      energy     time/iter
   496  6.8542e-04  4.7313e-03  1.6337e-03  1.8235e-01  6.6818e-04  0:01:05 1504
   497  6.8438e-04  4.6562e-03  1.5952e-03  1.7395e-01  6.6736e-04  0:00:52 1503
   498  6.8324e-04  4.5847e-03  1.5592e-03  1.6814e-01  6.6638e-04  0:00:42 1502
   499  6.8349e-04  4.5177e-03  1.5254e-03  1.6281e-01  6.6678e-04  0:00:33 1501
   500  6.8522e-04  4.4551e-03  1.4937e-03  1.5876e-01  6.6864e-04  0:00:27 1500
   501  6.8913e-04  4.3969e-03  1.4642e-03  1.5802e-01  6.7270e-04  0:00:21 1499
   502  6.9611e-04  4.3430e-03  1.4371e-03  1.6362e-01  6.7983e-04  0:00:17 1498
   503  7.0318e-04  4.2903e-03  1.4124e-03  1.8302e-01  6.8699e-04  0:00:14 1497
   504  7.1128e-04  4.2407e-03  1.3904e-03  2.0142e-01  6.9516e-04  0:05:10 1496
   505  7.2104e-04  4.1896e-03  1.3709e-03  1.5629e-01  7.0496e-04  0:04:08 1495
   506  7.3024e-04  4.1424e-03  1.3545e-03  1.5643e-01  7.1417e-04  0:03:18 1494

  iter  continuity  x-velocity  y-velocity  z-velocity      energy     time/iter
   507  7.4033e-04  4.0997e-03  1.3409e-03  1.4665e-01  7.2427e-04  0:02:38 1493
   508  7.4918e-04  4.0573e-03  1.3303e-03  1.3400e-01  7.3307e-04  0:02:07 1492
   509  7.5558e-04  4.0047e-03  1.3227e-03  1.2714e-01  7.3935e-04  0:01:41 1491
   510  7.6254e-04  3.9496e-03  1.3176e-03  1.2299e-01  7.4619e-04  0:01:21 1490
   511  7.7358e-04  3.9022e-03  1.3159e-03  1.2050e-01  7.5718e-04  0:01:05 1489
   512  7.8665e-04  3.8585e-03  1.3165e-03  1.1870e-01  7.7023e-04  0:00:52 1488
   513  7.9885e-04  3.8136e-03  1.3187e-03  1.1710e-01  7.8236e-04  0:00:41 1487
   514  8.0943e-04  3.7654e-03  1.3231e-03  1.1563e-01  7.9281e-04  0:00:33 1486
   515  8.1813e-04  3.7106e-03  1.3297e-03  1.1441e-01  8.0133e-04  0:00:26 1485
   516  8.2808e-04  3.6559e-03  1.3385e-03  1.1358e-01  8.1111e-04  0:00:21 1484
   517  8.3728e-04  3.6053e-03  1.3491e-03  1.1393e-01  8.2012e-04  0:00:17 1483

  iter  continuity  x-velocity  y-velocity  z-velocity      energy     time/iter
   518  8.4707e-04  3.5595e-03  1.3619e-03  1.3766e-01  8.2975e-04  0:00:14 1482
   519  8.5543e-04  3.5170e-03  1.3761e-03  1.3808e-01  8.3794e-04  0:05:07 1481
   520  8.6324e-04  3.4802e-03  1.3917e-03  1.4400e-01  8.4558e-04  0:04:05 1480
   521  8.7063e-04  3.4482e-03  1.4092e-03  1.4987e-01  8.5280e-04  0:03:16 1479
   522  8.7753e-04  3.4169e-03  1.4269e-03  1.6483e-01  8.5953e-04  0:02:37 1478
   523  8.8511e-04  3.3888e-03  1.4444e-03  1.8733e-01  8.6695e-04  0:02:05 1477
   524  8.9187e-04  3.3573e-03  1.4626e-03  2.0270e-01  8.7355e-04  0:01:40 1476
   525  8.9747e-04  3.3241e-03  1.4815e-03  2.4079e-01  8.7898e-04  0:01:20 1475
   526  9.0144e-04  3.2908e-03  1.5010e-03  2.4674e-01  8.8276e-04  0:01:04 1474
   527  9.0501e-04  3.2566e-03  1.5202e-03  2.2905e-01  8.8615e-04  0:00:51 1473
   528  9.0697e-04  3.2225e-03  1.5396e-03  2.0595e-01  8.8792e-04  0:00:41 1472

  iter  continuity  x-velocity  y-velocity  z-velocity      energy     time/iter
   529  9.0852e-04  3.1898e-03  1.5583e-03  1.8537e-01  8.8930e-04  0:00:33 1471
   530  9.1011e-04  3.1590e-03  1.5766e-03  1.7023e-01  8.9073e-04  0:00:26 1470
   531  9.0838e-04  3.1326e-03  1.5950e-03  1.5636e-01  8.8882e-04  0:00:21 1469
   532  9.0832e-04  3.1107e-03  1.6124e-03  1.4460e-01  8.8863e-04  0:00:17 1468
   533  9.0777e-04  3.0881e-03  1.6278e-03  1.3641e-01  8.8794e-04  0:00:13 1467
   534  9.0600e-04  3.0656e-03  1.6426e-03  1.3003e-01  8.8604e-04  0:05:04 1466
   535  9.0355e-04  3.0447e-03  1.6565e-03  1.2607e-01  8.8347e-04  0:04:03 1465
   536  9.0075e-04  3.0265e-03  1.6696e-03  1.2339e-01  8.8055e-04  0:03:14 1464
   537  8.9771e-04  3.0099e-03  1.6817e-03  1.2130e-01  8.7741e-04  0:02:35 1463
   538  8.9426e-04  2.9957e-03  1.6927e-03  1.1919e-01  8.7389e-04  0:02:04 1462
   539  8.9023e-04  2.9847e-03  1.7025e-03  1.1688e-01  8.6979e-04  0:01:39 1461

  iter  continuity  x-velocity  y-velocity  z-velocity      energy     time/iter
   540  8.8598e-04  2.9767e-03  1.7110e-03  1.1457e-01  8.6550e-04  0:01:19 1460
   541  8.8083e-04  2.9659e-03  1.7183e-03  1.1297e-01  8.6030e-04  0:01:03 1459
   542  8.7614e-04  2.9567e-03  1.7242e-03  1.1224e-01  8.5558e-04  0:00:51 1458
   543  8.6799e-04  2.9386e-03  1.7286e-03  1.1352e-01  8.4735e-04  0:00:41 1457
   544  8.6064e-04  2.9250e-03  1.7316e-03  1.1273e-01  8.3995e-04  0:00:32 1456
   545  8.5336e-04  2.9140e-03  1.7338e-03  1.1004e-01  8.3265e-04  0:00:26 1455
   546  8.4602e-04  2.9085e-03  1.7353e-03  1.0573e-01  8.2531e-04  0:00:21 1454
   547  8.3942e-04  2.9048e-03  1.7354e-03  1.4107e-01  8.1876e-04  0:00:17 1453
   548  8.3232e-04  2.8987e-03  1.7338e-03  1.8396e-01  8.1170e-04  0:00:13 1452
   549  8.2423e-04  2.8896e-03  1.7310e-03  2.0626e-01  8.0364e-04  0:00:11 1451
   550  8.1499e-04  2.8817e-03  1.7278e-03  2.1156e-01  7.9443e-04  0:04:58 1450

  iter  continuity  x-velocity  y-velocity  z-velocity      energy     time/iter
   551  8.0564e-04  2.8703e-03  1.7225e-03  2.0679e-01  7.8511e-04  0:03:59 1449
   552  7.9639e-04  2.8574e-03  1.7165e-03  1.9540e-01  7.7590e-04  0:03:11 1448
   553  7.8690e-04  2.8442e-03  1.7094e-03  1.8326e-01  7.6646e-04  0:02:32 1447
   554  7.7717e-04  2.8312e-03  1.7011e-03  1.6506e-01  7.5678e-04  0:02:02 1446
   555  7.6760e-04  2.8179e-03  1.6920e-03  1.4971e-01  7.4728e-04  0:01:37 1445
   556  7.5829e-04  2.8063e-03  1.6820e-03  1.3971e-01  7.3806e-04  0:01:18 1444
   557  7.4885e-04  2.7962e-03  1.6713e-03  1.4075e-01  7.2872e-04  0:01:02 1443
   558  7.3858e-04  2.7870e-03  1.6601e-03  1.4136e-01  7.1856e-04  0:00:50 1442
   559  7.2981e-04  2.7807e-03  1.6485e-03  1.3191e-01  7.0995e-04  0:00:40 1441
   560  7.2111e-04  2.7739e-03  1.6353e-03  1.1443e-01  7.0142e-04  0:00:32 1440
   561  7.1118e-04  2.7641e-03  1.6214e-03  9.9598e-02  6.9163e-04  0:00:25 1439

  iter  continuity  x-velocity  y-velocity  z-velocity      energy     time/iter
   562  6.9991e-04  2.7505e-03  1.6072e-03  8.9868e-02  6.8047e-04  0:00:20 1438
   563  6.8906e-04  2.7376e-03  1.5925e-03  8.4231e-02  6.6975e-04  0:00:16 1437
   564  6.7851e-04  2.7261e-03  1.5773e-03  8.2395e-02  6.5935e-04  0:00:13 1436
   565  6.6798e-04  2.7154e-03  1.5616e-03  8.4006e-02  6.4897e-04  0:00:10 1435
   566  6.5763e-04  2.7059e-03  1.5456e-03  8.8131e-02  6.3879e-04  0:04:55 1434
   567  6.4747e-04  2.6979e-03  1.5291e-03  9.4152e-02  6.2881e-04  0:03:56 1433
   568  6.3718e-04  2.6909e-03  1.5124e-03  9.9516e-02  6.1871e-04  0:03:09 1432
   569  6.2796e-04  2.6852e-03  1.4954e-03  1.0533e-01  6.0973e-04  0:02:31 1431
   570  6.1809e-04  2.6770e-03  1.4781e-03  1.1204e-01  6.0008e-04  0:02:01 1430
   571  6.0714e-04  2.6681e-03  1.4610e-03  1.1877e-01  5.8934e-04  0:01:36 1429
   572  5.9671e-04  2.6598e-03  1.4438e-03  1.2451e-01  5.7916e-04  0:01:17 1428

  iter  continuity  x-velocity  y-velocity  z-velocity      energy     time/iter
   573  5.8536e-04  2.6490e-03  1.4254e-03  1.3082e-01  5.6802e-04  0:01:02 1427
   574  5.7436e-04  2.6385e-03  1.4068e-03  1.3731e-01  5.5723e-04  0:00:49 1426
   575  5.6331e-04  2.6278e-03  1.3883e-03  1.4225e-01  5.4639e-04  0:00:39 1425
   576  5.5259e-04  2.6176e-03  1.3699e-03  1.4544e-01  5.3589e-04  0:00:31 1424
   577  5.4255e-04  2.6080e-03  1.3513e-03  1.4739e-01  5.2608e-04  0:00:25 1423
   578  5.3229e-04  2.5977e-03  1.3326e-03  1.4826e-01  5.1604e-04  0:00:20 1422
   579  5.2180e-04  2.5866e-03  1.3139e-03  1.1817e-01  5.0578e-04  0:00:16 1421
   580  5.1129e-04  2.5741e-03  1.2952e-03  2.1868e-01  4.9549e-04  0:00:13 1420
   581  5.0135e-04  2.5616e-03  1.2765e-03  3.2372e-01  4.8579e-04  0:00:10 1419
   582  4.9180e-04  2.5498e-03  1.2575e-03  3.7139e-01  4.7648e-04  0:04:52 1418
   583  4.8198e-04  2.5376e-03  1.2386e-03  3.9465e-01  4.6690e-04  0:03:53 1417

  iter  continuity  x-velocity  y-velocity  z-velocity      energy     time/iter
   584  4.7245e-04  2.5251e-03  1.2197e-03  3.9735e-01  4.5761e-04  0:03:06 1416
   585  4.6348e-04  2.5125e-03  1.2005e-03  3.8758e-01  4.4889e-04  0:02:29 1415
   586  4.5446e-04  2.4936e-03  1.1814e-03  3.6447e-01  4.4008e-04  0:01:59 1414
   587  4.4672e-04  2.4779e-03  1.1624e-03  3.3450e-01  4.3261e-04  0:01:35 1413
   588  4.3792e-04  2.4651e-03  1.1433e-03  2.9862e-01  4.2404e-04  0:01:16 1412
   589  4.2866e-04  2.4521e-03  1.1242e-03  2.6108e-01  4.1499e-04  0:01:01 1411
   590  4.2057e-04  2.4403e-03  1.1052e-03  2.2982e-01  4.0714e-04  0:00:49 1410
   591  4.1318e-04  2.4287e-03  1.0864e-03  2.1536e-01  3.9999e-04  0:00:39 1409
   592  4.0632e-04  2.4173e-03  1.0677e-03  2.1993e-01  3.9337e-04  0:00:31 1408
   593  3.9943e-04  2.4058e-03  1.0492e-03  2.3675e-01  3.8671e-04  0:00:25 1407
   594  3.9222e-04  2.3935e-03  1.0310e-03  2.5815e-01  3.7972e-04  0:00:20 1406

  iter  continuity  x-velocity  y-velocity  z-velocity      energy     time/iter
   595  3.8533e-04  2.3804e-03  1.0131e-03  2.7453e-01  3.7305e-04  0:00:16 1405
   596  3.7936e-04  2.3675e-03  9.9505e-04  2.8018e-01  3.6730e-04  0:00:13 1404
   597  3.7369e-04  2.3545e-03  9.7726e-04  2.7652e-01  3.6186e-04  0:04:51 1403
   598  3.6866e-04  2.3416e-03  9.5983e-04  2.5354e-01  3.5705e-04  0:03:52 1402
   599  3.6510e-04  2.3298e-03  9.4274e-04  2.2532e-01  3.5376e-04  0:03:06 1401
   600  3.6171e-04  2.3185e-03  9.2598e-04  2.0174e-01  3.5063e-04  0:02:29 1400
   601  3.5813e-04  2.3074e-03  9.0956e-04  1.8170e-01  3.4729e-04  0:01:59 1399
   602  3.5416e-04  2.2955e-03  8.9352e-04  1.6774e-01  3.4355e-04  0:01:35 1398
   603  3.4851e-04  2.2817e-03  8.7788e-04  1.6276e-01  3.3806e-04  0:01:16 1397
   604  3.4109e-04  2.2664e-03  8.6261e-04  1.6572e-01  3.3075e-04  0:01:01 1396
   605  3.3382e-04  2.2514e-03  8.4779e-04  1.7404e-01  3.2360e-04  0:00:49 1395

  iter  continuity  x-velocity  y-velocity  z-velocity      energy     time/iter
   606  3.2856e-04  2.2382e-03  8.3337e-04  1.8610e-01  3.1849e-04  0:00:39 1394
   607  3.2374e-04  2.2257e-03  8.1963e-04  2.0278e-01  3.1385e-04  0:00:31 1393
   608  3.1984e-04  2.2139e-03  8.0578e-04  2.1249e-01  3.1012e-04  0:00:25 1392
   609  3.1707e-04  2.2037e-03  7.9243e-04  2.1639e-01  3.0756e-04  0:00:20 1391
   610  3.1373e-04  2.1935e-03  7.7966e-04  2.2312e-01  3.0439e-04  0:00:16 1390
   611  3.0935e-04  2.1825e-03  7.6745e-04  2.3545e-01  3.0016e-04  0:00:13 1389
   612  3.0459e-04  2.1712e-03  7.5566e-04  2.4196e-01  2.9554e-04  0:04:48 1388
   613  2.9973e-04  2.1598e-03  7.4421e-04  2.4446e-01  2.9081e-04  0:03:50 1387
   614  2.9516e-04  2.1491e-03  7.3309e-04  2.4530e-01  2.8638e-04  0:03:04 1386
   615  2.9050e-04  2.1387e-03  7.2231e-04  2.4396e-01  2.8185e-04  0:02:27 1385
   616  2.8560e-04  2.1275e-03  7.1211e-04  2.4118e-01  2.7708e-04  0:01:58 1384

  iter  continuity  x-velocity  y-velocity  z-velocity      energy     time/iter
   617  2.8123e-04  2.1165e-03  7.0213e-04  2.3700e-01  2.7285e-04  0:01:34 1383
   618  2.7680e-04  2.1060e-03  6.9203e-04  2.3138e-01  2.6856e-04  0:01:15 1382
   619  2.7205e-04  2.0957e-03  6.8214e-04  2.2504e-01  2.6393e-04  0:01:00 1381
   620  2.6715e-04  2.0855e-03  6.7253e-04  2.1784e-01  2.5915e-04  0:00:48 1380
   621  2.6218e-04  2.0755e-03  6.6321e-04  2.0980e-01  2.5429e-04  0:00:38 1379
   622  2.5668e-04  2.0651e-03  6.5436e-04  2.0155e-01  2.4889e-04  0:00:31 1378
   623  2.5167e-04  2.0554e-03  6.4530e-04  1.9325e-01  2.4400e-04  0:00:25 1377
   624  2.4685e-04  2.0461e-03  6.3625e-04  1.8485e-01  2.3929e-04  0:00:20 1376
   625  2.4184e-04  2.0371e-03  6.2731e-04  1.7747e-01  2.3439e-04  0:00:16 1375
   626  2.3673e-04  2.0280e-03  6.1846e-04  1.6956e-01  2.2939e-04  0:00:13 1374
   627  2.3156e-04  2.0189e-03  6.0968e-04  1.6103e-01  2.2432e-04  0:00:10 1373

  iter  continuity  x-velocity  y-velocity  z-velocity      energy     time/iter
   628  2.2651e-04  2.0100e-03  6.0092e-04  1.5140e-01  2.1936e-04  0:04:42 1372
   629  2.2177e-04  2.0012e-03  5.9213e-04  1.4889e-01  2.1473e-04  0:03:46 1371
   630  2.1725e-04  1.9923e-03  5.8327e-04  1.5995e-01  2.1033e-04  0:03:00 1370
   631  2.1258e-04  1.9834e-03  5.7449e-04  1.8519e-01  2.0575e-04  0:02:24 1369
   632  2.0839e-04  1.9748e-03  5.6562e-04  2.1994e-01  2.0168e-04  0:01:55 1368
   633  2.0470e-04  1.9661e-03  5.5665e-04  2.5735e-01  1.9812e-04  0:01:32 1367
   634  2.0106e-04  1.9574e-03  5.4730e-04  2.9215e-01  1.9458e-04  0:01:14 1366
   635  1.9974e-04  1.9492e-03  5.3827e-04  3.1528e-01  1.9345e-04  0:00:59 1365
   636  1.9902e-04  1.9418e-03  5.2935e-04  3.3177e-01  1.9293e-04  0:00:47 1364
   637  1.9538e-04  1.9334e-03  5.2037e-04  3.4059e-01  1.8940e-04  0:00:38 1363
   638  1.8249e-04  1.9212e-03  5.1160e-04  3.4424e-01  1.7636e-04  0:00:30 1362

  iter  continuity  x-velocity  y-velocity  z-velocity      energy     time/iter
   639  1.7844e-04  1.9120e-03  5.0224e-04  3.4823e-01  1.7242e-04  0:00:24 1361
   640  1.7558e-04  1.9031e-03  4.9293e-04  3.5297e-01  1.6968e-04  0:00:19 1360
   641  1.7283e-04  1.8943e-03  4.8372e-04  3.5780e-01  1.6705e-04  0:00:15 1359
   642  1.7115e-04  1.8859e-03  4.7465e-04  3.6457e-01  1.6551e-04  0:00:12 1358
   643  1.6972e-04  1.8774e-03  4.6568e-04  3.7170e-01  1.6422e-04  0:00:10 1357
   644  1.6798e-04  1.8683e-03  4.5683e-04  3.7985e-01  1.6261e-04  0:04:39 1356
   645  1.6796e-04  1.8585e-03  4.4782e-04  3.8903e-01  1.6274e-04  0:03:43 1355
   646  1.6755e-04  1.8482e-03  4.3936e-04  3.9941e-01  1.6248e-04  0:02:58 1354
   647  1.6589e-04  1.8376e-03  4.3103e-04  4.1095e-01  1.6093e-04  0:02:23 1353
   648  1.6351e-04  1.8265e-03  4.2280e-04  4.2361e-01  1.5864e-04  0:01:54 1352
   649  1.6088e-04  1.8151e-03  4.1467e-04  4.3754e-01  1.5609e-04  0:01:31 1351

  iter  continuity  x-velocity  y-velocity  z-velocity      energy     time/iter
   650  1.5815e-04  1.8034e-03  4.0671e-04  4.5252e-01  1.5342e-04  0:01:13 1350
   651  1.5535e-04  1.7917e-03  3.9893e-04  4.6446e-01  1.5068e-04  0:00:58 1349
   652  1.5260e-04  1.7799e-03  3.9135e-04  4.7760e-01  1.4800e-04  0:00:47 1348
   653  1.4973e-04  1.7681e-03  3.8414e-04  4.9552e-01  1.4517e-04  0:00:37 1347
   654  1.4700e-04  1.7567e-03  3.7692e-04  5.1689e-01  1.4249e-04  0:00:30 1346
   655  1.4475e-04  1.7454e-03  3.6995e-04  5.4183e-01  1.4030e-04  0:00:24 1345
   656  1.4290e-04  1.7343e-03  3.6326e-04  5.7381e-01  1.3851e-04  0:00:19 1344
   657  1.4133e-04  1.7233e-03  3.5684e-04  6.1326e-01  1.3700e-04  0:00:15 1343
   658  1.3989e-04  1.7124e-03  3.5064e-04  6.5608e-01  1.3563e-04  0:00:12 1342
   659  1.4000e-04  1.7027e-03  3.4478e-04  7.0142e-01  1.3584e-04  0:04:38 1341
   660  1.3935e-04  1.6926e-03  3.3904e-04  7.4755e-01  1.3527e-04  0:03:42 1340

  iter  continuity  x-velocity  y-velocity  z-velocity      energy     time/iter
   661  1.3842e-04  1.6821e-03  3.3349e-04  7.9308e-01  1.3441e-04  0:02:58 1339
   662  1.3628e-04  1.6714e-03  3.2873e-04  8.3895e-01  1.3230e-04  0:02:22 1338
   663  1.3542e-04  1.6608e-03  3.2380e-04  8.6612e-01  1.3151e-04  0:01:53 1337
   664  1.3523e-04  1.6503e-03  3.1882e-04  7.8964e-01  1.3140e-04  0:01:31 1336
   665  1.3512e-04  1.6398e-03  3.1416e-04  6.8411e-01  1.3136e-04  0:01:13 1335
   666  1.3491e-04  1.6293e-03  3.0982e-04  5.9169e-01  1.3123e-04  0:00:58 1334
   667  1.3424e-04  1.6189e-03  3.0573e-04  5.4121e-01  1.3062e-04  0:00:46 1333
   668  1.2985e-04  1.6082e-03  3.0248e-04  5.2268e-01  1.2620e-04  0:00:37 1332
   669  1.2785e-04  1.5978e-03  2.9855e-04  5.2778e-01  1.2424e-04  0:00:30 1331
   670  1.2658e-04  1.5874e-03  2.9464e-04  5.3743e-01  1.2301e-04  0:00:24 1330
   671  1.2547e-04  1.5768e-03  2.9095e-04  5.4386e-01  1.2195e-04  0:00:19 1329

  iter  continuity  x-velocity  y-velocity  z-velocity      energy     time/iter
   672  1.2441e-04  1.5662e-03  2.8750e-04  5.2845e-01  1.2093e-04  0:00:15 1328
   673  1.2339e-04  1.5558e-03  2.8445e-04  4.9987e-01  1.1996e-04  0:00:12 1327
   674  1.2282e-04  1.5455e-03  2.8155e-04  4.6114e-01  1.1946e-04  0:00:10 1326
   675  1.2196e-04  1.5351e-03  2.7826e-04  4.2468e-01  1.1866e-04  0:04:33 1325
   676  1.2072e-04  1.5244e-03  2.7520e-04  4.0242e-01  1.1746e-04  0:03:38 1324
   677  1.1943e-04  1.5140e-03  2.7248e-04  4.0556e-01  1.1622e-04  0:02:54 1323
   678  1.1816e-04  1.5036e-03  2.6955e-04  4.3054e-01  1.1500e-04  0:02:19 1322
   679  1.1686e-04  1.4931e-03  2.6660e-04  4.7333e-01  1.1374e-04  0:01:51 1321
   680  1.1552e-04  1.4826e-03  2.6374e-04  5.2409e-01  1.1244e-04  0:01:29 1320
   681  1.1416e-04  1.4721e-03  2.6096e-04  5.7789e-01  1.1112e-04  0:01:11 1319
   682  1.1281e-04  1.4617e-03  2.5816e-04  6.3483e-01  1.0981e-04  0:00:57 1318

  iter  continuity  x-velocity  y-velocity  z-velocity      energy     time/iter
   683  1.1154e-04  1.4512e-03  2.5530e-04  6.9486e-01  1.0859e-04  0:00:45 1317
   684  1.0955e-04  1.4413e-03  2.5342e-04  7.5592e-01  1.0662e-04  0:00:36 1316
   685  1.0792e-04  1.4329e-03  2.5221e-04  8.2056e-01  1.0506e-04  0:00:29 1315
   686  1.0913e-04  1.4261e-03  2.5067e-04  8.7593e-01  1.0642e-04  0:00:23 1314
   687  1.0832e-04  1.4184e-03  2.4619e-04  9.2170e-01  1.0566e-04  0:04:41 1313
   688  1.0514e-04  1.4089e-03  2.4248e-04  9.6779e-01  1.0247e-04  0:03:45 1312
   689  1.0316e-04  1.4001e-03  2.4075e-04  9.8765e-01  1.0051e-04  0:03:00 1311
   690  1.0265e-04  1.3925e-03  2.3815e-04  9.9688e-01  1.0008e-04  0:02:24 1310
   691  1.0226e-04  1.3852e-03  2.3531e-04  9.8514e-01  9.9752e-05  0:01:55 1309
   692  1.0199e-04  1.3778e-03  2.3260e-04  9.7824e-01  9.9546e-05  0:01:32 1308
   693  1.0201e-04  1.3707e-03  2.3004e-04  9.8927e-01  9.9645e-05  0:01:13 1307

  iter  continuity  x-velocity  y-velocity  z-velocity      energy     time/iter
   694  1.0239e-04  1.3639e-03  2.2753e-04  1.0045e+00  1.0011e-04  0:00:59 1306
   695  1.0322e-04  1.3578e-03  2.2502e-04  1.0045e+00  1.0103e-04  0:00:47 1305
   696  1.0419e-04  1.3524e-03  2.2322e-04  9.9072e-01  1.0209e-04  0:00:37 1304
   697  1.0433e-04  1.3465e-03  2.2112e-04  9.6540e-01  1.0231e-04  0:00:30 1303
   698  1.0409e-04  1.3387e-03  2.1864e-04  9.3916e-01  1.0213e-04  0:00:24 1302
   699  1.0479e-04  1.3317e-03  2.1545e-04  9.1350e-01  1.0291e-04  0:00:19 1301
   700  1.0414e-04  1.3244e-03  2.1238e-04  8.8521e-01  1.0232e-04  0:00:15 1300
   701  1.0236e-04  1.3165e-03  2.0943e-04  8.5190e-01  1.0057e-04  0:00:12 1299
   702  9.9900e-05  1.3079e-03  2.0652e-04  8.1594e-01  9.8138e-05  0:04:29 1298
   703  9.7056e-05  1.2990e-03  2.0358e-04  7.8466e-01  9.5312e-05  0:03:35 1297
   704  9.4082e-05  1.2900e-03  2.0060e-04  7.5856e-01  9.2349e-05  0:02:52 1296

  iter  continuity  x-velocity  y-velocity  z-velocity      energy     time/iter
   705  9.1047e-05  1.2811e-03  1.9757e-04  7.3673e-01  8.9323e-05  0:02:18 1295
   706  8.8037e-05  1.2722e-03  1.9453e-04  7.2091e-01  8.6321e-05  0:01:50 1294
   707  8.5112e-05  1.2634e-03  1.9149e-04  7.1084e-01  8.3403e-05  0:01:28 1293
   708  8.2344e-05  1.2547e-03  1.8847e-04  7.0525e-01  8.0643e-05  0:01:10 1292
   709  7.9829e-05  1.2462e-03  1.8547e-04  7.0515e-01  7.8138e-05  0:00:56 1291
   710  7.7612e-05  1.2381e-03  1.8250e-04  6.9011e-01  7.5934e-05  0:00:45 1290
   711  7.5568e-05  1.2302e-03  1.7962e-04  6.6839e-01  7.3905e-05  0:00:36 1289
   712  7.4116e-05  1.2217e-03  1.7678e-04  6.8282e-01  7.2479e-05  0:00:29 1288
   713  7.2347e-05  1.2138e-03  1.7397e-04  8.1938e-01  7.0727e-05  0:00:23 1287
   714  7.0440e-05  1.2059e-03  1.7102e-04  1.1234e+00  6.8831e-05  0:00:18 1286
   715  6.8731e-05  1.1982e-03  1.6811e-04  1.5328e+00  6.7131e-05  0:00:15 1285

  iter  continuity  x-velocity  y-velocity  z-velocity      energy     time/iter
   716  6.7217e-05  1.1907e-03  1.6533e-04  1.9125e+00  6.5630e-05  0:00:12 1284
   717  6.5911e-05  1.1836e-03  1.6269e-04  2.1443e+00  6.4343e-05  0:04:26 1283
   718  6.4712e-05  1.1767e-03  1.6015e-04  2.2633e+00  6.3166e-05  0:03:33 1282
   719  6.3609e-05  1.1699e-03  1.5770e-04  2.3790e+00  6.2085e-05  0:02:50 1281
   720  6.2581e-05  1.1632e-03  1.5532e-04  2.4896e+00  6.1079e-05  0:02:16 1280
   721  6.1608e-05  1.1566e-03  1.5299e-04  2.5707e+00  6.0128e-05  0:01:49 1279
   722  6.0354e-05  1.1503e-03  1.5091e-04  2.5804e+00  5.8893e-05  0:01:27 1278
   723  5.9108e-05  1.1443e-03  1.4890e-04  2.5329e+00  5.7668e-05  0:01:09 1277
   724  5.8100e-05  1.1385e-03  1.4674e-04  2.3686e+00  5.6683e-05  0:00:55 1276
   725  5.7218e-05  1.1326e-03  1.4460e-04  2.3075e+00  5.5823e-05  0:00:44 1275
   726  5.6436e-05  1.1267e-03  1.4254e-04  2.2535e+00  5.5062e-05  0:00:35 1274

  iter  continuity  x-velocity  y-velocity  z-velocity      energy     time/iter
   727  5.5713e-05  1.1208e-03  1.4055e-04  2.2134e+00  5.4359e-05  0:00:28 1273
   728  5.4990e-05  1.1151e-03  1.3864e-04  2.1531e+00  5.3655e-05  0:00:23 1272
   729  5.4347e-05  1.1094e-03  1.3680e-04  2.1085e+00  5.3034e-05  0:00:18 1271
   730  5.3792e-05  1.1038e-03  1.3498e-04  2.1257e+00  5.2498e-05  0:00:14 1270
   731  5.3118e-05  1.0981e-03  1.3321e-04  2.1699e+00  5.1836e-05  0:04:25 1269
   732  5.2455e-05  1.0925e-03  1.3148e-04  2.1840e+00  5.1183e-05  0:03:32 1268
   733  5.1864e-05  1.0870e-03  1.2979e-04  2.1486e+00  5.0604e-05  0:02:50 1267
   734  5.1310e-05  1.0816e-03  1.2816e-04  2.1486e+00  5.0062e-05  0:02:16 1266
   735  5.0774e-05  1.0764e-03  1.2658e-04  2.1737e+00  4.9538e-05  0:01:48 1265
   736  5.0276e-05  1.0714e-03  1.2505e-04  2.2081e+00  4.9053e-05  0:01:27 1264
   737  4.9801e-05  1.0664e-03  1.2356e-04  2.2487e+00  4.8591e-05  0:01:09 1263

  iter  continuity  x-velocity  y-velocity  z-velocity      energy     time/iter
   738  4.9347e-05  1.0616e-03  1.2211e-04  2.3023e+00  4.8149e-05  0:00:55 1262
   739  4.8845e-05  1.0569e-03  1.2071e-04  2.3688e+00  4.7659e-05  0:00:44 1261
   740  4.8299e-05  1.0524e-03  1.1935e-04  2.4476e+00  4.7124e-05  0:00:35 1260
   741  4.7696e-05  1.0481e-03  1.1802e-04  2.5150e+00  4.6530e-05  0:00:28 1259
   742  4.7293e-05  1.0440e-03  1.1676e-04  2.5552e+00  4.6140e-05  0:00:23 1258
   743  4.6925e-05  1.0402e-03  1.1554e-04  2.5635e+00  4.5786e-05  0:00:18 1257
   744  4.6557e-05  1.0366e-03  1.1437e-04  2.5428e+00  4.5431e-05  0:00:14 1256
   745  4.6077e-05  1.0330e-03  1.1324e-04  2.5042e+00  4.4961e-05  0:00:12 1255
   746  4.4975e-05  1.0292e-03  1.1217e-04  2.4540e+00  4.3854e-05  0:00:09 1254
   747  4.4271e-05  1.0258e-03  1.1114e-04  2.3450e+00  4.3156e-05  0:04:18 1253
   748  4.3662e-05  1.0226e-03  1.1014e-04  2.2045e+00  4.2554e-05  0:03:26 1252

  iter  continuity  x-velocity  y-velocity  z-velocity      energy     time/iter
   749  4.3094e-05  1.0196e-03  1.0917e-04  2.0562e+00  4.1994e-05  0:02:45 1251
   750  4.2558e-05  1.0169e-03  1.0825e-04  1.9166e+00  4.1466e-05  0:02:12 1250
   751  4.2035e-05  1.0144e-03  1.0740e-04  1.7908e+00  4.0952e-05  0:01:45 1249
   752  4.1527e-05  1.0120e-03  1.0659e-04  1.6793e+00  4.0455e-05  0:01:24 1248
   753  4.1030e-05  1.0099e-03  1.0581e-04  1.5811e+00  3.9968e-05  0:01:07 1247
   754  4.0543e-05  1.0078e-03  1.0506e-04  1.4881e+00  3.9491e-05  0:00:54 1246
   755  4.0048e-05  1.0059e-03  1.0433e-04  1.4040e+00  3.9007e-05  0:00:43 1245
   756  3.9580e-05  1.0042e-03  1.0364e-04  1.3272e+00  3.8548e-05  0:00:34 1244
   757  3.9137e-05  1.0026e-03  1.0298e-04  1.2587e+00  3.8116e-05  0:00:27 1243
   758  3.8725e-05  1.0011e-03  1.0235e-04  1.1955e+00  3.7714e-05  0:00:22 1242
   759  3.8332e-05  9.9976e-04  1.0171e-04  1.1422e+00  3.7334e-05  0:00:18 1241

  iter  continuity  x-velocity  y-velocity  z-velocity      energy     time/iter
   760  3.7967e-05  9.9853e-04  1.0108e-04  1.0964e+00  3.6979e-05  0:00:14 1240
   761  3.7637e-05  9.9740e-04  1.0049e-04  1.0651e+00  3.6662e-05  0:00:11 1239
   762  3.7101e-05  9.9637e-04  9.9912e-05  1.0428e+00  3.6134e-05  0:00:09 1238
   763  3.6840e-05  9.9548e-04  9.9347e-05  1.0255e+00  3.5887e-05  0:04:15 1237
   764  3.6639e-05  9.9468e-04  9.8784e-05  1.0100e+00  3.5701e-05  0:03:23 1236
   765  3.6475e-05  9.9395e-04  9.8252e-05  9.9741e-01  3.5551e-05  0:02:43 1235
   766  3.6334e-05  9.9327e-04  9.7734e-05  9.8764e-01  3.5423e-05  0:02:10 1234
   767  3.6202e-05  9.9266e-04  9.7172e-05  9.7859e-01  3.5303e-05  0:01:44 1233
   768  3.6152e-05  9.9210e-04  9.6634e-05  9.7205e-01  3.5267e-05  0:01:23 1232
   769  3.6142e-05  9.9157e-04  9.6129e-05  9.6689e-01  3.5270e-05  0:01:06 1231
   770  3.6156e-05  9.9107e-04  9.5650e-05  9.6679e-01  3.5295e-05  0:00:53 1230

  iter  continuity  x-velocity  y-velocity  z-velocity      energy     time/iter
   771  3.6163e-05  9.9060e-04  9.5219e-05  9.7728e-01  3.5312e-05  0:00:42 1229
   772  3.6247e-05  9.9016e-04  9.4763e-05  9.9083e-01  3.5406e-05  0:00:34 1228
   773  3.6376e-05  9.8972e-04  9.4324e-05  1.0028e+00  3.5543e-05  0:00:27 1227
   774  3.6537e-05  9.8929e-04  9.3918e-05  1.0140e+00  3.5712e-05  0:00:22 1226
   775  3.6688e-05  9.8888e-04  9.3533e-05  1.0260e+00  3.5869e-05  0:00:17 1225
   776  3.6934e-05  9.8849e-04  9.3199e-05  1.0452e+00  3.6123e-05  0:00:14 1224
   777  3.7226e-05  9.8808e-04  9.2899e-05  1.0692e+00  3.6421e-05  0:00:11 1223
   778  3.7545e-05  9.8763e-04  9.2630e-05  1.0957e+00  3.6745e-05  0:00:09 1222
   779  3.7884e-05  9.8715e-04  9.2399e-05  1.1238e+00  3.7088e-05  0:04:11 1221
   780  3.8240e-05  9.8662e-04  9.2208e-05  1.1583e+00  3.7447e-05  0:03:21 1220
   781  3.8612e-05  9.8605e-04  9.2076e-05  1.1990e+00  3.7819e-05  0:02:41 1219

  iter  continuity  x-velocity  y-velocity  z-velocity      energy     time/iter
   782  3.8985e-05  9.8542e-04  9.1991e-05  1.2459e+00  3.8191e-05  0:02:08 1218
   783  3.9352e-05  9.8474e-04  9.1934e-05  1.2854e+00  3.8557e-05  0:01:43 1217
   784  3.9714e-05  9.8402e-04  9.1921e-05  1.2930e+00  3.8916e-05  0:01:22 1216
   785  4.0094e-05  9.8326e-04  9.1957e-05  1.2763e+00  3.9292e-05  0:01:06 1215
   786  4.0474e-05  9.8242e-04  9.2044e-05  1.2501e+00  3.9668e-05  0:00:52 1214
   787  4.0861e-05  9.8152e-04  9.2177e-05  1.2219e+00  4.0049e-05  0:00:42 1213
   788  4.1261e-05  9.8055e-04  9.2352e-05  1.1884e+00  4.0442e-05  0:00:33 1212
   789  4.1673e-05  9.7952e-04  9.2566e-05  1.1536e+00  4.0848e-05  0:00:27 1211
   790  4.2156e-05  9.7826e-04  9.2817e-05  1.1218e+00  4.1324e-05  0:00:21 1210
   791  4.2590e-05  9.7689e-04  9.3148e-05  1.0940e+00  4.1751e-05  0:00:17 1209
   792  4.3032e-05  9.7554e-04  9.3564e-05  1.0705e+00  4.2187e-05  0:00:14 1208

  iter  continuity  x-velocity  y-velocity  z-velocity      energy     time/iter
   793  4.3486e-05  9.7415e-04  9.3928e-05  1.0514e+00  4.2636e-05  0:00:11 1207
   794  4.3896e-05  9.7265e-04  9.4273e-05  1.0258e+00  4.3039e-05  0:04:10 1206
   795  4.4282e-05  9.7102e-04  9.4642e-05  1.0064e+00  4.3415e-05  0:03:20 1205
   796  4.4656e-05  9.6928e-04  9.5054e-05  9.9109e-01  4.3778e-05  0:02:40 1204
   797  4.5007e-05  9.6744e-04  9.5512e-05  9.7951e-01  4.4118e-05  0:02:08 1203
   798  4.5351e-05  9.6552e-04  9.6009e-05  9.7093e-01  4.4452e-05  0:01:42 1202
   799  4.5674e-05  9.6354e-04  9.6537e-05  9.6671e-01  4.4764e-05  0:01:22 1201
   800  4.5989e-05  9.6150e-04  9.7082e-05  9.6686e-01  4.5068e-05  0:01:05 1200
   801  4.6313e-05  9.5941e-04  9.7634e-05  9.7139e-01  4.5382e-05  0:00:52 1199
   802  4.6586e-05  9.5724e-04  9.8156e-05  9.8478e-01  4.5644e-05  0:00:42 1198
   803  4.6893e-05  9.5498e-04  9.8694e-05  1.0070e+00  4.5940e-05  0:00:33 1197

  iter  continuity  x-velocity  y-velocity  z-velocity      energy     time/iter
   804  4.7201e-05  9.5266e-04  9.9238e-05  1.0378e+00  4.6237e-05  0:00:27 1196
   805  4.7498e-05  9.5029e-04  9.9827e-05  1.0768e+00  4.6526e-05  0:00:21 1195
   806  4.7810e-05  9.4787e-04  1.0040e-04  1.1239e+00  4.6828e-05  0:00:17 1194
   807  4.7963e-05  9.4530e-04  1.0095e-04  1.1799e+00  4.6968e-05  0:00:14 1193
   808  4.8083e-05  9.4261e-04  1.0150e-04  1.2134e+00  4.7076e-05  0:00:11 1192
[...]

  iter  continuity  x-velocity  y-velocity  z-velocity      energy     time/iter
  1794  7.0679e-07  4.3365e-06  1.5303e-06  6.8642e-02  6.8705e-07  0:00:09  206
  1795  7.0434e-07  4.3224e-06  1.5253e-06  7.0451e-02  6.8466e-07  0:00:07  205
  1796  7.0186e-07  4.3083e-06  1.5203e-06  7.1180e-02  6.8225e-07  0:00:06  204
  1797  6.9935e-07  4.2943e-06  1.5154e-06  7.0618e-02  6.7982e-07  0:00:04  203
  1798  6.9683e-07  4.2803e-06  1.5105e-06  6.8716e-02  6.7737e-07  0:00:04  202
  1799  6.9429e-07  4.2664e-06  1.5056e-06  6.5607e-02  6.7490e-07  0:00:03  201
  1800  6.9174e-07  4.2525e-06  1.5008e-06  6.1586e-02  6.7242e-07  0:00:02  200
  1801  6.8919e-07  4.2387e-06  1.4960e-06  5.7019e-02  6.6993e-07  0:00:02  199
  1802  6.8663e-07  4.2249e-06  1.4913e-06  5.2348e-02  6.6744e-07  0:00:01  198
  1803  6.8407e-07  4.2111e-06  1.4865e-06  4.7932e-02  6.6495e-07  0:00:01  197
  1804  6.8152e-07  4.1973e-06  1.4817e-06  4.4017e-02  6.6247e-07  0:00:01  196

  iter  continuity  x-velocity  y-velocity  z-velocity      energy     time/iter
  1805  6.7899e-07  4.1835e-06  1.4769e-06  4.0703e-02  6.6000e-07  0:00:40  195
  1806  6.7647e-07  4.1698e-06  1.4722e-06  3.7953e-02  6.5755e-07  0:00:32  194
  1807  6.7399e-07  4.1560e-06  1.4674e-06  3.5706e-02  6.5513e-07  0:00:25  193
  1808  6.7153e-07  4.1423e-06  1.4626e-06  3.3882e-02  6.5274e-07  0:00:20  192
  1809  6.6910e-07  4.1286e-06  1.4578e-06  3.2393e-02  6.5038e-07  0:00:16  191
  1810  6.6671e-07  4.1149e-06  1.4529e-06  3.1159e-02  6.4805e-07  0:00:13  190
  1811  6.6436e-07  4.1011e-06  1.4481e-06  3.0113e-02  6.4577e-07  0:00:10  189
  1812  6.6206e-07  4.0874e-06  1.4432e-06  2.9207e-02  6.4353e-07  0:00:08  188
  1813  6.5980e-07  4.0736e-06  1.4384e-06  2.8394e-02  6.4134e-07  0:00:06  187
  1814  6.5760e-07  4.0599e-06  1.4335e-06  2.7661e-02  6.3920e-07  0:00:05  186
  1815  6.5546e-07  4.0461e-06  1.4286e-06  2.7001e-02  6.3712e-07  0:00:04  185

  iter  continuity  x-velocity  y-velocity  z-velocity      energy     time/iter
  1816  6.5337e-07  4.0323e-06  1.4237e-06  2.6391e-02  6.3510e-07  0:00:03  184
  1817  6.5135e-07  4.0185e-06  1.4189e-06  2.5819e-02  6.3314e-07  0:00:03  183
  1818  6.4939e-07  4.0047e-06  1.4140e-06  2.5275e-02  6.3124e-07  0:00:02  182
  1819  6.4748e-07  3.9908e-06  1.4092e-06  2.4753e-02  6.2940e-07  0:00:02  181
  1820  6.4565e-07  3.9770e-06  1.4044e-06  2.4250e-02  6.2762e-07  0:00:01  180
  1821  6.4387e-07  3.9631e-06  1.3996e-06  2.3762e-02  6.2590e-07  0:00:01  179
  1822  6.4215e-07  3.9492e-06  1.3949e-06  2.3289e-02  6.2424e-07  0:00:01  178
  1823  6.4049e-07  3.9352e-06  1.3902e-06  2.2829e-02  6.2264e-07  0:00:36  177
  1824  6.3889e-07  3.9213e-06  1.3856e-06  2.2384e-02  6.2110e-07  0:00:29  176
  1825  6.3735e-07  3.9073e-06  1.3810e-06  2.1953e-02  6.1961e-07  0:00:23  175
  1826  6.3586e-07  3.8933e-06  1.3765e-06  2.1535e-02  6.1817e-07  0:00:18  174

  iter  continuity  x-velocity  y-velocity  z-velocity      energy     time/iter
  1827  6.3441e-07  3.8793e-06  1.3720e-06  2.1129e-02  6.1678e-07  0:00:14  173
  1828  6.3301e-07  3.8653e-06  1.3677e-06  2.0735e-02  6.1544e-07  0:00:11  172
  1829  6.3165e-07  3.8513e-06  1.3634e-06  2.0351e-02  6.1413e-07  0:00:09  171
  1830  6.3033e-07  3.8373e-06  1.3592e-06  1.9977e-02  6.1286e-07  0:00:07  170
  1831  6.2905e-07  3.8232e-06  1.3550e-06  1.9612e-02  6.1162e-07  0:00:06  169
  1832  6.2779e-07  3.8092e-06  1.3510e-06  1.9256e-02  6.1041e-07  0:00:05  168
  1833  6.2655e-07  3.7952e-06  1.3471e-06  1.8908e-02  6.0923e-07  0:00:04  167
  1834  6.2533e-07  3.7811e-06  1.3432e-06  1.8568e-02  6.0806e-07  0:00:03  166
  1835  6.2413e-07  3.7671e-06  1.3395e-06  1.8235e-02  6.0690e-07  0:00:02  165
  1836  6.2294e-07  3.7531e-06  1.3358e-06  1.7909e-02  6.0575e-07  0:00:02  164
  1837  6.2175e-07  3.7390e-06  1.3322e-06  1.7590e-02  6.0461e-07  0:00:01  163

  iter  continuity  x-velocity  y-velocity  z-velocity      energy     time/iter
  1838  6.2057e-07  3.7250e-06  1.3287e-06  1.7277e-02  6.0347e-07  0:00:01  162
  1839  6.1938e-07  3.7110e-06  1.3254e-06  1.6971e-02  6.0233e-07  0:00:01  161
  1840  6.1818e-07  3.6970e-06  1.3220e-06  1.6671e-02  6.0117e-07  0:00:33  160
  1841  6.1697e-07  3.6830e-06  1.3188e-06  1.6376e-02  6.0001e-07  0:00:26  159
  1842  6.1575e-07  3.6691e-06  1.3157e-06  1.6087e-02  5.9883e-07  0:00:21  158
  1843  6.1451e-07  3.6551e-06  1.3126e-06  1.5802e-02  5.9763e-07  0:00:16  157
  1844  6.1325e-07  3.6412e-06  1.3096e-06  1.5535e-02  5.9641e-07  0:00:13  156
  1845  6.1197e-07  3.6273e-06  1.3067e-06  1.5274e-02  5.9516e-07  0:00:10  155
  1846  6.1066e-07  3.6134e-06  1.3038e-06  1.5016e-02  5.9389e-07  0:00:08  154
  1847  6.0932e-07  3.5995e-06  1.3009e-06  1.4760e-02  5.9260e-07  0:00:07  153
  1848  6.0795e-07  3.5856e-06  1.2982e-06  1.4505e-02  5.9127e-07  0:00:05  152

  iter  continuity  x-velocity  y-velocity  z-velocity      energy     time/iter
  1849  6.0603e-07  3.5709e-06  1.2970e-06  1.4249e-02  5.8938e-07  0:00:04  151
  1850  6.0453e-07  3.5565e-06  1.2948e-06  1.3995e-02  5.8792e-07  0:00:03  150
  1851  6.0323e-07  3.5424e-06  1.2919e-06  1.3745e-02  5.8665e-07  0:00:03  149
  1852  6.0196e-07  3.5285e-06  1.2887e-06  1.3499e-02  5.8542e-07  0:00:02  148
  1853  6.0066e-07  3.5148e-06  1.2855e-06  1.3256e-02  5.8416e-07  0:00:02  147
  1854  5.9928e-07  3.5011e-06  1.2824e-06  1.3018e-02  5.8281e-07  0:00:01  146
  1855  5.9783e-07  3.4874e-06  1.2794e-06  1.2783e-02  5.8140e-07  0:00:01  145
  1856  5.9630e-07  3.4737e-06  1.2766e-06  1.2552e-02  5.7991e-07  0:00:30  144
  1857  5.9472e-07  3.4600e-06  1.2738e-06  1.2325e-02  5.7837e-07  0:00:24  143
  1858  5.9309e-07  3.4463e-06  1.2710e-06  1.2103e-02  5.7678e-07  0:00:19  142
  1859  5.9142e-07  3.4325e-06  1.2683e-06  1.1884e-02  5.7514e-07  0:00:15  141

  iter  continuity  x-velocity  y-velocity  z-velocity      energy     time/iter
  1860  5.8971e-07  3.4188e-06  1.2655e-06  1.1669e-02  5.7347e-07  0:00:12  140
  1861  5.8797e-07  3.4051e-06  1.2627e-06  1.1457e-02  5.7177e-07  0:00:09  139
  1862  5.8620e-07  3.3913e-06  1.2599e-06  1.1248e-02  5.7004e-07  0:00:07  138
  1863  5.8440e-07  3.3776e-06  1.2571e-06  1.1043e-02  5.6829e-07  0:00:06  137
  1864  5.8259e-07  3.3639e-06  1.2542e-06  1.0841e-02  5.6651e-07  0:00:05  136
  1865  5.8076e-07  3.3501e-06  1.2513e-06  1.0644e-02  5.6472e-07  0:00:04  135
  1866  5.7891e-07  3.3363e-06  1.2483e-06  1.0449e-02  5.6292e-07  0:00:03  134
  1867  5.7706e-07  3.3225e-06  1.2452e-06  1.0258e-02  5.6112e-07  0:00:02  133
  1868  5.7521e-07  3.3087e-06  1.2421e-06  1.0070e-02  5.5931e-07  0:00:02  132
  1869  5.7335e-07  3.2949e-06  1.2390e-06  9.8848e-03  5.5750e-07  0:00:01  131
  1870  5.7150e-07  3.2810e-06  1.2358e-06  9.7033e-03  5.5569e-07  0:00:01  130

  iter  continuity  x-velocity  y-velocity  z-velocity      energy     time/iter
  1871  5.6965e-07  3.2671e-06  1.2325e-06  9.5252e-03  5.5388e-07  0:00:01  129
  1872  5.6781e-07  3.2532e-06  1.2292e-06  9.3506e-03  5.5209e-07  0:00:26  128
  1873  5.6598e-07  3.2393e-06  1.2258e-06  9.1795e-03  5.5030e-07  0:00:21  127
  1874  5.6415e-07  3.2253e-06  1.2224e-06  9.0116e-03  5.4853e-07  0:00:17  126
  1875  5.6234e-07  3.2113e-06  1.2190e-06  8.8471e-03  5.4676e-07  0:00:13  125
  1876  5.6054e-07  3.1972e-06  1.2155e-06  8.6858e-03  5.4501e-07  0:00:10  124
  1877  5.5876e-07  3.1832e-06  1.2119e-06  8.5276e-03  5.4327e-07  0:00:08  123
  1878  5.5699e-07  3.1691e-06  1.2084e-06  8.3725e-03  5.4155e-07  0:00:07  122
  1879  5.5523e-07  3.1549e-06  1.2048e-06  8.2204e-03  5.3984e-07  0:00:05  121
  1880  5.5348e-07  3.1408e-06  1.2011e-06  8.0714e-03  5.3814e-07  0:00:04  120
  1881  5.5175e-07  3.1266e-06  1.1975e-06  7.9283e-03  5.3646e-07  0:00:03  119

  iter  continuity  x-velocity  y-velocity  z-velocity      energy     time/iter
  1882  5.5004e-07  3.1124e-06  1.1938e-06  7.7876e-03  5.3479e-07  0:00:03  118
  1883  5.4833e-07  3.0981e-06  1.1901e-06  7.6480e-03  5.3314e-07  0:00:02  117
  1884  5.4664e-07  3.0839e-06  1.1863e-06  7.5098e-03  5.3150e-07  0:00:02  116
  1885  5.4496e-07  3.0695e-06  1.1826e-06  7.3738e-03  5.2987e-07  0:00:24  115
  1886  5.4330e-07  3.0552e-06  1.1789e-06  7.2401e-03  5.2825e-07  0:00:19  114
  1887  5.4165e-07  3.0409e-06  1.1751e-06  7.1091e-03  5.2665e-07  0:00:15  113
  1888  5.4000e-07  3.0265e-06  1.1714e-06  6.9808e-03  5.2505e-07  0:00:12  112
  1889  5.3837e-07  3.0121e-06  1.1676e-06  6.8552e-03  5.2347e-07  0:00:10  111
  1890  5.3675e-07  2.9977e-06  1.1639e-06  6.7320e-03  5.2189e-07  0:00:08  110
  1891  5.3513e-07  2.9832e-06  1.1601e-06  6.6114e-03  5.2033e-07  0:00:06  109
  1892  5.3352e-07  2.9687e-06  1.1564e-06  6.4932e-03  5.1877e-07  0:00:05  108

  iter  continuity  x-velocity  y-velocity  z-velocity      energy     time/iter
  1893  5.3192e-07  2.9543e-06  1.1527e-06  6.3774e-03  5.1721e-07  0:00:04  107
  1894  5.3032e-07  2.9398e-06  1.1490e-06  6.2637e-03  5.1566e-07  0:00:03  106
  1895  5.2873e-07  2.9253e-06  1.1453e-06  6.1523e-03  5.1412e-07  0:00:02  105
  1896  5.2714e-07  2.9108e-06  1.1416e-06  6.0431e-03  5.1257e-07  0:00:02  104
  1897  5.2555e-07  2.8962e-06  1.1379e-06  5.9360e-03  5.1103e-07  0:00:01  103
  1898  5.2395e-07  2.8817e-06  1.1343e-06  5.8309e-03  5.0948e-07  0:00:01  102
  1899  5.2236e-07  2.8672e-06  1.1306e-06  5.7278e-03  5.0793e-07  0:00:21  101
  1900  5.2076e-07  2.8527e-06  1.1270e-06  5.6265e-03  5.0638e-07  0:00:17  100
  1901  5.1916e-07  2.8381e-06  1.1234e-06  5.5265e-03  5.0483e-07  0:00:13   99
  1902  5.1756e-07  2.8236e-06  1.1198e-06  5.4287e-03  5.0327e-07  0:00:11   98
  1903  5.1594e-07  2.8091e-06  1.1163e-06  5.3329e-03  5.0170e-07  0:00:08   97

  iter  continuity  x-velocity  y-velocity  z-velocity      energy     time/iter
  1904  5.1433e-07  2.7946e-06  1.1127e-06  5.2392e-03  5.0013e-07  0:00:07   96
  1905  5.1270e-07  2.7801e-06  1.1092e-06  5.1473e-03  4.9855e-07  0:00:05   95
  1906  5.1107e-07  2.7656e-06  1.1056e-06  5.0572e-03  4.9697e-07  0:00:04   94
  1907  5.0943e-07  2.7511e-06  1.1021e-06  4.9688e-03  4.9537e-07  0:00:03   93
  1908  5.0778e-07  2.7366e-06  1.0986e-06  4.8822e-03  4.9377e-07  0:00:03   92
  1909  5.0612e-07  2.7221e-06  1.0951e-06  4.7971e-03  4.9216e-07  0:00:02   91
  1910  5.0446e-07  2.7077e-06  1.0916e-06  4.7136e-03  4.9054e-07  0:00:02   90
  1911  5.0278e-07  2.6933e-06  1.0881e-06  4.6318e-03  4.8891e-07  0:00:01   89
  1912  5.0110e-07  2.6789e-06  1.0847e-06  4.5515e-03  4.8727e-07  0:00:01   88
  1913  4.9941e-07  2.6645e-06  1.0812e-06  4.4727e-03  4.8562e-07  0:00:01   87
  1914  4.9771e-07  2.6501e-06  1.0777e-06  4.3954e-03  4.8397e-07  0:00:18   86

  iter  continuity  x-velocity  y-velocity  z-velocity      energy     time/iter
  1915  4.9601e-07  2.6358e-06  1.0743e-06  4.3195e-03  4.8231e-07  0:00:14   85
  1916  4.9430e-07  2.6214e-06  1.0708e-06  4.2450e-03  4.8064e-07  0:00:11   84
  1917  4.9258e-07  2.6071e-06  1.0674e-06  4.1718e-03  4.7897e-07  0:00:09   83
  1918  4.9086e-07  2.5929e-06  1.0639e-06  4.1000e-03  4.7729e-07  0:00:07   82
  1919  4.8913e-07  2.5786e-06  1.0604e-06  4.0296e-03  4.7561e-07  0:00:06   81
  1920  4.8740e-07  2.5644e-06  1.0570e-06  3.9604e-03  4.7392e-07  0:00:04   80
  1921  4.8567e-07  2.5502e-06  1.0535e-06  3.8926e-03  4.7223e-07  0:00:03   79
  1922  4.8393e-07  2.5360e-06  1.0500e-06  3.8261e-03  4.7054e-07  0:00:03   78
  1923  4.8219e-07  2.5219e-06  1.0466e-06  3.7609e-03  4.6885e-07  0:00:02   77
  1924  4.8046e-07  2.5078e-06  1.0431e-06  3.6970e-03  4.6715e-07  0:00:02   76
  1925  4.7872e-07  2.4938e-06  1.0396e-06  3.6342e-03  4.6546e-07  0:00:01   75

  iter  continuity  x-velocity  y-velocity  z-velocity      energy     time/iter
  1926  4.7698e-07  2.4797e-06  1.0361e-06  3.5727e-03  4.6377e-07  0:00:01   74
  1927  4.7525e-07  2.4658e-06  1.0326e-06  3.5123e-03  4.6208e-07  0:00:01   73
  1928  4.7352e-07  2.4518e-06  1.0291e-06  3.4531e-03  4.6039e-07  0:00:01   72
  1929  4.7179e-07  2.4379e-06  1.0256e-06  3.3950e-03  4.5871e-07  0:00:01   71
  1930  4.7007e-07  2.4240e-06  1.0221e-06  3.3381e-03  4.5703e-07  0:00:14   70
  1931  4.6835e-07  2.4102e-06  1.0186e-06  3.2822e-03  4.5536e-07  0:00:11   69
  1932  4.6664e-07  2.3964e-06  1.0151e-06  3.2274e-03  4.5369e-07  0:00:09   68
  1933  4.6494e-07  2.3826e-06  1.0115e-06  3.1737e-03  4.5203e-07  0:00:07   67
  1934  4.6324e-07  2.3689e-06  1.0080e-06  3.1210e-03  4.5038e-07  0:00:06   66
  1935  4.6155e-07  2.3553e-06  1.0045e-06  3.0693e-03  4.4873e-07  0:00:04   65
  1936  4.5987e-07  2.3416e-06  1.0010e-06  3.0187e-03  4.4710e-07  0:00:03   64

  iter  continuity  x-velocity  y-velocity  z-velocity      energy     time/iter
  1937  4.5820e-07  2.3281e-06  9.9744e-07  2.9690e-03  4.4547e-07  0:00:03   63
  1938  4.5654e-07  2.3145e-06  9.9392e-07  2.9204e-03  4.4385e-07  0:00:02   62
  1939  4.5488e-07  2.3011e-06  9.9040e-07  2.8727e-03  4.4224e-07  0:00:02   61
  1940  4.5324e-07  2.2876e-06  9.8688e-07  2.8259e-03  4.4064e-07  0:00:01   60
  1941  4.5160e-07  2.2743e-06  9.8336e-07  2.7801e-03  4.3905e-07  0:00:01   59
  1942  4.4998e-07  2.2609e-06  9.7985e-07  2.7353e-03  4.3746e-07  0:00:01   58
  1943  4.4836e-07  2.2477e-06  9.7634e-07  2.6913e-03  4.3589e-07  0:00:01   57
  1944  4.4676e-07  2.2345e-06  9.7284e-07  2.6482e-03  4.3433e-07  0:00:01   56
  1945  4.4516e-07  2.2213e-06  9.6935e-07  2.6061e-03  4.3277e-07  0:00:11   55
  1946  4.4357e-07  2.2082e-06  9.6587e-07  2.5648e-03  4.3123e-07  0:00:09   54
  1947  4.4199e-07  2.1951e-06  9.6240e-07  2.5243e-03  4.2969e-07  0:00:07   53

  iter  continuity  x-velocity  y-velocity  z-velocity      energy     time/iter
  1948  4.4042e-07  2.1822e-06  9.5894e-07  2.4847e-03  4.2816e-07  0:00:06   52
  1949  4.3885e-07  2.1692e-06  9.5549e-07  2.4460e-03  4.2664e-07  0:00:04   51
  1950  4.3729e-07  2.1564e-06  9.5205e-07  2.4080e-03  4.2512e-07  0:00:03   50
  1951  4.3574e-07  2.1436e-06  9.4863e-07  2.3709e-03  4.2361e-07  0:00:03   49
  1952  4.3420e-07  2.1308e-06  9.4522e-07  2.3345e-03  4.2210e-07  0:00:02   48
  1953  4.3265e-07  2.1181e-06  9.4182e-07  2.2989e-03  4.2060e-07  0:00:02   47
  1954  4.3112e-07  2.1055e-06  9.3844e-07  2.2641e-03  4.1911e-07  0:00:01   46
  1955  4.2958e-07  2.0930e-06  9.3508e-07  2.2301e-03  4.1761e-07  0:00:01   45
  1956  4.2805e-07  2.0805e-06  9.3173e-07  2.1967e-03  4.1612e-07  0:00:01   44
  1957  4.2652e-07  2.0681e-06  9.2839e-07  2.1641e-03  4.1464e-07  0:00:01   43
  1958  4.2500e-07  2.0557e-06  9.2507e-07  2.1322e-03  4.1315e-07  0:00:00   42

  iter  continuity  x-velocity  y-velocity  z-velocity      energy     time/iter
  1959  4.2347e-07  2.0434e-06  9.2177e-07  2.1009e-03  4.1166e-07  0:00:00   41
  1960  4.2194e-07  2.0312e-06  9.1848e-07  2.0704e-03  4.1018e-07  0:00:08   40
  1961  4.2041e-07  2.0191e-06  9.1521e-07  2.0405e-03  4.0869e-07  0:00:06   39
  1962  4.1888e-07  2.0070e-06  9.1195e-07  2.0113e-03  4.0720e-07  0:00:05   38
  1963  4.1735e-07  1.9950e-06  9.0870e-07  1.9827e-03  4.0571e-07  0:00:04   37
  1964  4.1582e-07  1.9831e-06  9.0547e-07  1.9547e-03  4.0422e-07  0:00:03   36
  1965  4.1428e-07  1.9712e-06  9.0225e-07  1.9274e-03  4.0272e-07  0:00:02   35
  1966  4.1274e-07  1.9594e-06  8.9904e-07  1.9006e-03  4.0122e-07  0:00:02   34
  1967  4.1120e-07  1.9477e-06  8.9585e-07  1.8744e-03  3.9972e-07  0:00:01   33
  1968  4.0965e-07  1.9360e-06  8.9266e-07  1.8488e-03  3.9821e-07  0:00:01   32
  1969  4.0810e-07  1.9244e-06  8.8949e-07  1.8238e-03  3.9669e-07  0:00:01   31

  iter  continuity  x-velocity  y-velocity  z-velocity      energy     time/iter
  1970  4.0654e-07  1.9129e-06  8.8632e-07  1.7993e-03  3.9518e-07  0:00:01   30
  1971  4.0498e-07  1.9014e-06  8.8315e-07  1.7753e-03  3.9365e-07  0:00:06   29
  1972  4.0341e-07  1.8901e-06  8.8000e-07  1.7519e-03  3.9212e-07  0:00:05   28
  1973  4.0184e-07  1.8787e-06  8.7685e-07  1.7289e-03  3.9059e-07  0:00:04   27
  1974  4.0026e-07  1.8675e-06  8.7370e-07  1.7065e-03  3.8905e-07  0:00:03   26
  1975  3.9867e-07  1.8563e-06  8.7055e-07  1.6846e-03  3.8751e-07  0:00:02   25
  1976  3.9708e-07  1.8452e-06  8.6741e-07  1.6631e-03  3.8596e-07  0:00:02   24
  1977  3.9548e-07  1.8341e-06  8.6427e-07  1.6421e-03  3.8440e-07  0:00:01   23
  1978  3.9388e-07  1.8231e-06  8.6112e-07  1.6216e-03  3.8284e-07  0:00:01   22
  1979  3.9227e-07  1.8122e-06  8.5798e-07  1.6015e-03  3.8127e-07  0:00:01   21
  1980  3.9066e-07  1.8013e-06  8.5483e-07  1.5819e-03  3.7970e-07  0:00:01   20

  iter  continuity  x-velocity  y-velocity  z-velocity      energy     time/iter
  1981  3.8904e-07  1.7905e-06  8.5168e-07  1.5626e-03  3.7812e-07  0:00:00   19
  1982  3.8742e-07  1.7798e-06  8.4852e-07  1.5438e-03  3.7654e-07  0:00:00   18
  1983  3.8579e-07  1.7691e-06  8.4536e-07  1.5254e-03  3.7495e-07  0:00:00   17
  1984  3.8416e-07  1.7585e-06  8.4219e-07  1.5075e-03  3.7336e-07  0:00:00   16
  1985  3.8252e-07  1.7479e-06  8.3902e-07  1.4899e-03  3.7176e-07  0:00:00   15
  1986  3.8088e-07  1.7374e-06  8.3583e-07  1.4726e-03  3.7016e-07  0:00:00   14
  1987  3.7924e-07  1.7269e-06  8.3264e-07  1.4558e-03  3.6855e-07  0:00:03   13
  1988  3.7759e-07  1.7165e-06  8.2945e-07  1.4393e-03  3.6695e-07  0:00:02   12
  1989  3.7593e-07  1.7061e-06  8.2624e-07  1.4232e-03  3.6533e-07  0:00:01   11
  1990  3.7428e-07  1.6958e-06  8.2302e-07  1.4075e-03  3.6372e-07  0:00:01   10
  1991  3.7262e-07  1.6856e-06  8.1980e-07  1.3921e-03  3.6210e-07  0:00:01    9

  iter  continuity  x-velocity  y-velocity  z-velocity      energy     time/iter
  1992  3.7095e-07  1.6754e-06  8.1656e-07  1.3770e-03  3.6048e-07  0:00:01    8
  1993  3.6929e-07  1.6652e-06  8.1331e-07  1.3623e-03  3.5885e-07  0:00:00    7
  1994  3.6762e-07  1.6551e-06  8.1005e-07  1.3478e-03  3.5723e-07  0:00:00    6
  1995  3.6595e-07  1.6451e-06  8.0679e-07  1.3338e-03  3.5560e-07  0:00:00    5
  1996  3.6428e-07  1.6351e-06  8.0351e-07  1.3200e-03  3.5397e-07  0:00:00    4
  1997  3.6260e-07  1.6251e-06  8.0022e-07  1.3066e-03  3.5234e-07  0:00:00    3
  1998  3.6093e-07  1.6152e-06  7.9692e-07  1.2934e-03  3.5070e-07  0:00:00    2
  1999  3.5925e-07  1.6053e-06  7.9361e-07  1.2805e-03  3.4907e-07  0:00:00    1
  2000  3.5757e-07  1.5955e-06  7.9029e-07  1.2679e-03  3.4743e-07  0:00:00    0

> 
adjoint/                parallel/               server/
define/                 parametric-study/       solve/
display/                plot/                   surface/
exit                    preferences/            turbo-workflow/
file/                   print-license-usage     views/
mesh/                   report/

> /file/write-case-data project1
Fast-loading "C:\PROGRA~1\ANSYSI~1\v231\fluent\fluent23.1.0\\addons\afd\lib\hdfio.bin"
Done.

Writing to Engs-30669:"C:\Users\kebl7595\Desktop\CFD\Runs\Actual Data\0 degree smaller domain\project1.cas.h5" in NODE0 mode and compression level 1 ...
       11016 cells,     1 zone  ...
       37101 faces,     8 zones ...
       15196 nodes,     1 zone  ...
  Done.
Done.

Writing to Engs-30669:"C:\Users\kebl7595\Desktop\CFD\Runs\Actual Data\0 degree smaller domain\project1.dat.h5" in NODE0 mode and compression level 1 ...
  Writing results.
Done.

> /file/export/ascii "./surface.dat" wing te () no pressure mach-number quit no

Writing "./surface.dat"...

Writing information to ascii file ...
Done.


> /plot/plot y "data.dat" no n n pressure-coefficient no n x-coordinate wing ()

> 
adjoint/                parallel/               server/
define/                 parametric-study/       solve/
display/                plot/                   surface/
exit                    preferences/            turbo-workflow/
file/                   print-license-usage     views/
mesh/                   report/

> /exit

Posting ANSYS Product Improvement Program performance data 
Done.
Auto-Transcript Stop Time:  14:29:35, 20 May 2024 GMT Daylight Time 
Total Transcript Time: 2 Minute 25 Second.
