Auto-Transcript Start Time:  10:08:41, 22 May 2024 GMT Daylight Time 
Current Directory: "C:\Users\kebl7595\Desktop\CFD\Runs\Flap\9 degrees"

              Welcome to ANSYS Fluent 2023 R1

              Copyright 1987-2023 ANSYS, Inc. All Rights Reserved.
              Unauthorized use, distribution or duplication is prohibited.
              This product is subject to U.S. laws governing export and re-export.
              For full Legal Notice, see documentation.

Build Time: Nov 28 2022 09:52:02 EST  Build Id: 10208  
 
Connected License Server List:	1055@ansyslic.eng.ox.ac.uk

*********************************************
Info: Your license enables 4-way parallel execution.
For faster simulations, please start the application with the appropriate parallel options.
*********************************************


     --------------------------------------------------------------
     This is an academic version of ANSYS FLUENT. Usage of this product
     license is limited to the terms and conditions specified in your ANSYS
     license form, additional terms section.
     --------------------------------------------------------------
Host spawning Node 0 on machine "Engs-30669" (win64).

------------------------------------------------------------------------------------
ID    Hostname    Core  O.S.         PID    Vendor                                 
------------------------------------------------------------------------------------
n0    Engs-30669  1/32  Windows-x64  46216  13th Gen Intel(R) Core(TM) i9-13900    
host  Engs-30669        Windows-x64  48080  13th Gen Intel(R) Core(TM) i9-13900    

MPI Option Selected: intel
------------------------------------------------------------------------------------

Cleanup script file is C:\\Users\\kebl7595\\Desktop\\CFD\\Runs\\Flap\\9 degrees\\cleanup-fluent-Engs-30669-48080.bat

Posting ANSYS Product Improvement Program startup data
Done.

Reading journal file C:/Users/kebl7595/Desktop/CFD/Runs/Flap/9 degrees/project1.jou...

> /file/set-batch-options no no no 

> 
define/                 parametric-study/       solve/
display/                plot/                   surface/
exit                    preferences/            switch-to-meshing-mode
file/                   print-license-usage     turbo-workflow/
mesh/                   report/                 views/
parallel/               server/

> /file/import/cgns/mesh  "./project1.cgns"
Engs-30669 has other FLUENT parallel processes running.                       Process affinity not being set.

Importing "./project1.cgns"

Opening library "C:\\PROGRA~1\\ANSYSI~1\\v231\\fluent\\fluent23.1.0\\vki\\win64\\devtools4.4.6.dll"... done.

Read    33000 nodes
   24072 hexahedral cells, zone  1
   17404 quadrilateral wall faces, zone  2.
   63040 quadrilateral interior faces, zone  3.
     474 quadrilateral interface faces, zone  4.

Building...
     mesh
     materials,
     interface,
     domains,
     zones,
	interface-default_subface
	default_interior-1
	default_subface
	default
     parallel,
The automatic selection for flux type has changed to Rhie-Chow: momentum based.

Done.


> 
adjoint/                parallel/               server/
define/                 parametric-study/       solve/
display/                plot/                   surface/
exit                    preferences/            turbo-workflow/
file/                   print-license-usage     views/
mesh/                   report/

> /define/models/solver/density-based-implicit yes

> 
adjoint/                parallel/               server/
define/                 parametric-study/       solve/
display/                plot/                   surface/
exit                    preferences/            turbo-workflow/
file/                   print-license-usage     views/
mesh/                   report/

> /define/models/energy? yes yes invalid command [yes]
yes

> /define/models/viscous/kw-standard? yes

> 
adjoint/                parallel/               server/
define/                 parametric-study/       solve/
display/                plot/                   surface/
exit                    preferences/            turbo-workflow/
file/                   print-license-usage     views/
mesh/                   report/

> /define/materials/change-create air air air is a fluid
yes 
Density
ideal-gas no data required.

no no no no no no

> 
adjoint/                parallel/               server/
define/                 parametric-study/       solve/
display/                plot/                   surface/
exit                    preferences/            turbo-workflow/
file/                   print-license-usage     views/
mesh/                   report/

> /mesh/modify-zones/sep-face-zone-angle 2 90 yes

 8024 faces in contiguous region 0
 441 faces in contiguous region 1
 618 faces in contiguous region 2
 8024 faces in contiguous region 3
 297 faces in contiguous region 4
 Separates zone 2 into 5 zone(s).
Updating new zone information...
   created new zone default_subface:009 from default_subface
   created new zone default_subface:008 from default_subface
   created new zone default_subface:007 from default_subface
   created new zone default_subface:006 from default_subface
done.

> 
adjoint/                parallel/               server/
define/                 parametric-study/       solve/
display/                plot/                   surface/
exit                    preferences/            turbo-workflow/
file/                   print-license-usage     views/
mesh/                   report/

> /define/boundary-conditions/zone-name  6 wing

> /define/boundary-conditions/zone-name  2 sym1

> /define/boundary-conditions/zone-name  8 sym2

> 
adjoint/                parallel/               server/
define/                 parametric-study/       solve/
display/                plot/                   surface/
exit                    preferences/            turbo-workflow/
file/                   print-license-usage     views/
mesh/                   report/

> /define/boundary-conditions/zone-name  7 far1

> /define/boundary-conditions/zone-name 9 far2

> 
adjoint/                parallel/               server/
define/                 parametric-study/       solve/
display/                plot/                   surface/
exit                    preferences/            turbo-workflow/
file/                   print-license-usage     views/
mesh/                   report/

> /define/boundary-conditions/zone-type  7 pressure-far-field

> /define/boundary-conditions/zone-type 9 pressure-far-field

> /define/boundary-conditions/zone-type  2 symmetry

> /define/boundary-conditions/zone-type  8 symmetry

> 
adjoint/                parallel/               server/
define/                 parametric-study/       solve/
display/                plot/                   surface/
exit                    preferences/            turbo-workflow/
file/                   print-license-usage     views/
mesh/                   report/

> /define/boundary-conditions/pressure-far-field (far2 far1)
far1 no 0 no 0.1 no 300 yes no 0.98769 no -0.15643 no 0. no yes 5 0.02

> /define/boundary-conditions/pressure-far-field (far2 far1)
far2 no 0 no 0.1 no 300 yes no 0.98769 no -0.15643 no 0. no yes 5 0.02

> 
adjoint/                parallel/               server/
define/                 parametric-study/       solve/
display/                plot/                   surface/
exit                    preferences/            turbo-workflow/
file/                   print-license-usage     views/
mesh/                   report/

> /solve/initialize/compute-defaults/pressure-far-field (far2 far1)
far1

> /solve/initialize/initialize-flow

> 
adjoint/                parallel/               server/
define/                 parametric-study/       solve/
display/                plot/                   surface/
exit                    preferences/            turbo-workflow/
file/                   print-license-usage     views/
mesh/                   report/

> /solve/monitors/residual/convergence-criteria 1.e-9 1.e-9 1.e-9 1.e-9 1.e-9 1.e-9 1.e-9

> /solve/iterate 2000

  iter  continuity  x-velocity  y-velocity  z-velocity      energy           k       omega     time/iter
     1  1.0000e+00  1.0000e+00  1.0000e+00  1.0000e+00  1.0000e+00  4.9073e-02  5.0520e-02  0:33:19 1999
     2  4.6222e-01  2.6069e-01  2.7454e-01  1.0000e+00  4.6462e-01  4.3629e-02  3.7255e-02  0:26:38 1998
     3  2.0751e-01  1.4696e-01  1.6003e-01  9.4475e-01  2.0777e-01  3.9145e-02  3.2233e-02  0:27:57 1997
     4  1.4876e-01  8.6965e-02  1.0649e-01  9.2548e-01  1.4935e-01  3.5423e-02  2.9200e-02  0:22:21 1996
     5  1.2423e-01  5.9847e-02  8.1455e-02  9.6547e-01  1.2512e-01  3.2341e-02  2.7059e-02  0:17:53 1995
     6  1.0767e-01  4.2547e-02  6.6461e-02  9.4706e-01  1.0849e-01  2.9681e-02  2.5216e-02  0:20:56 1994
     7  9.5097e-02  2.9298e-02  5.5847e-02  9.7638e-01  9.5731e-02  2.7373e-02  2.3554e-02  0:16:45 1993
     8  8.8746e-02  2.0114e-02  4.8584e-02  1.0263e+00  8.9273e-02  2.5397e-02  2.2080e-02  0:13:23 1992
     9  8.4287e-02  1.4741e-02  4.4261e-02  1.0938e+00  8.4759e-02  2.3712e-02  2.0769e-02  0:10:42 1991
    10  7.9848e-02  1.1991e-02  4.1948e-02  1.0961e+00  8.0264e-02  2.2275e-02  1.9625e-02  0:15:12 1990
    11  7.5809e-02  1.0574e-02  4.1715e-02  1.0439e+00  7.6164e-02  2.1056e-02  1.8632e-02  0:12:09 1989

  iter  continuity  x-velocity  y-velocity  z-velocity      energy           k       omega     time/iter
    12  7.2534e-02  9.6377e-03  4.2397e-02  9.6920e-01  7.2839e-02  2.0013e-02  1.7775e-02  0:09:43 1988
    13  7.0205e-02  9.0014e-03  4.4538e-02  1.2210e+00  7.0486e-02  1.9123e-02  1.6994e-02  0:14:23 1987
    14  6.8485e-02  8.7417e-03  4.7332e-02  1.8340e+00  6.8758e-02  1.8370e-02  1.6376e-02  0:11:30 1986
    15  6.6871e-02  9.2282e-03  4.7009e-02  1.4875e+00  6.7110e-02  1.7696e-02  1.5765e-02  0:09:12 1985
    16  6.6119e-02  1.0198e-02  4.6489e-02  1.2411e+00  6.6342e-02  1.7066e-02  1.5164e-02  0:07:21 1984
    17  6.5136e-02  1.1565e-02  4.6077e-02  1.1111e+00  6.5347e-02  1.6498e-02  1.4785e-02  0:12:30 1983
    18  6.4701e-02  1.2708e-02  4.5645e-02  1.0761e+00  6.4908e-02  1.5964e-02  1.4376e-02  0:09:59 1982
    19  6.3952e-02  1.3739e-02  4.5351e-02  1.0941e+00  6.4155e-02  1.5466e-02  1.4043e-02  0:07:59 1981
    20  6.1712e-02  1.4685e-02  4.5007e-02  1.1132e+00  6.1903e-02  1.5049e-02  1.3675e-02  0:06:23 1980
    21  5.7320e-02  1.5381e-02  4.4530e-02  1.1150e+00  5.7482e-02  1.4667e-02  1.3260e-02  0:05:06 1979
    22  5.1214e-02  1.5748e-02  4.4072e-02  1.0927e+00  5.1335e-02  1.4312e-02  1.2898e-02  0:04:05 1978

  iter  continuity  x-velocity  y-velocity  z-velocity      energy           k       omega     time/iter
    23  4.3969e-02  1.5526e-02  4.3417e-02  1.0425e+00  4.4048e-02  1.4023e-02  1.2625e-02  0:09:51 1977
    24  3.6654e-02  1.4825e-02  4.2569e-02  9.6895e-01  3.6697e-02  1.3743e-02  1.2296e-02  0:07:53 1976
    25  3.0519e-02  1.3770e-02  4.1992e-02  8.8746e-01  3.0536e-02  1.3469e-02  1.1923e-02  0:06:18 1975
    26  2.6204e-02  1.2350e-02  4.1608e-02  8.2069e-01  2.6215e-02  1.3218e-02  1.1581e-02  0:05:02 1974
    27  2.4133e-02  1.0648e-02  4.1373e-02  7.7284e-01  2.4157e-02  1.2986e-02  1.1313e-02  0:10:36 1973
    28  2.3731e-02  8.9741e-03  4.1193e-02  7.4324e-01  2.3774e-02  1.2716e-02  1.0963e-02  0:08:29 1972
    29  2.4426e-02  7.7043e-03  4.0990e-02  7.2009e-01  2.4484e-02  1.2481e-02  1.0606e-02  0:06:47 1971
    30  2.5546e-02  6.8901e-03  4.0685e-02  7.0195e-01  2.5614e-02  1.2243e-02  1.0338e-02  0:05:25 1970
    31  2.6586e-02  6.3585e-03  4.0248e-02  6.8504e-01  2.6659e-02  1.2008e-02  1.0040e-02  0:04:20 1969
    32  2.7470e-02  5.9464e-03  3.9636e-02  6.6862e-01  2.7545e-02  1.1812e-02  9.7164e-03  0:03:28 1968
    33  2.7938e-02  5.6031e-03  3.8797e-02  6.4833e-01  2.8011e-02  1.1635e-02  9.4501e-03  0:09:20 1967

  iter  continuity  x-velocity  y-velocity  z-velocity      energy           k       omega     time/iter
    34  2.7956e-02  5.2195e-03  3.7723e-02  6.2295e-01  2.8023e-02  1.1475e-02  9.1886e-03  0:07:28 1966
    35  2.7555e-02  4.8189e-03  3.6443e-02  5.9297e-01  2.7613e-02  1.1333e-02  8.9267e-03  0:05:58 1965
    36  2.6769e-02  4.4040e-03  3.4972e-02  5.6011e-01  2.6814e-02  1.1206e-02  8.6911e-03  0:04:46 1964
    37  2.5729e-02  3.9930e-03  3.3347e-02  5.2587e-01  2.5760e-02  1.1085e-02  8.4874e-03  0:03:49 1963
    38  2.4565e-02  3.6352e-03  3.1618e-02  4.9193e-01  2.4582e-02  1.0976e-02  8.3254e-03  0:09:35 1962
    39  2.3316e-02  3.3921e-03  2.9834e-02  4.6015e-01  2.3317e-02  1.0860e-02  8.1775e-03  0:07:40 1961
    40  2.2301e-02  3.2875e-03  2.8085e-02  4.3172e-01  2.2288e-02  1.0754e-02  8.0693e-03  0:06:08 1960
    41  2.1490e-02  3.3164e-03  2.6354e-02  4.0497e-01  2.1464e-02  1.0649e-02  7.9834e-03  0:04:54 1959
    42  2.0868e-02  3.4287e-03  2.4668e-02  3.8473e-01  2.0835e-02  1.0547e-02  7.9432e-03  0:03:55 1958
    43  2.0413e-02  3.5935e-03  2.3071e-02  3.7177e-01  2.0377e-02  1.0430e-02  7.8992e-03  0:09:39 1957
    44  2.0150e-02  3.7772e-03  2.1591e-02  3.5997e-01  2.0113e-02  1.0370e-02  7.9073e-03  0:07:43 1956

  iter  continuity  x-velocity  y-velocity  z-velocity      energy           k       omega     time/iter
    45  2.0037e-02  3.9479e-03  2.0216e-02  3.5450e-01  2.0003e-02  1.0339e-02  7.8779e-03  0:06:10 1955
    46  2.0101e-02  4.0846e-03  1.9035e-02  3.5615e-01  2.0072e-02  1.0331e-02  7.9058e-03  0:04:56 1954
    47  2.0245e-02  4.1954e-03  1.8220e-02  3.7454e-01  2.0222e-02  1.0281e-02  7.8406e-03  0:03:57 1953
    48  2.0380e-02  4.2412e-03  1.7566e-02  3.7447e-01  2.0365e-02  1.0465e-02  7.9066e-03  0:09:40 1952
    49  2.0508e-02  4.2115e-03  1.7388e-02  3.7524e-01  2.0502e-02  1.0463e-02  7.8310e-03  0:07:44 1951
    50  2.0810e-02  4.1665e-03  1.7324e-02  3.7139e-01  2.0813e-02  1.0450e-02  7.6801e-03  0:06:11 1950
    51  2.1004e-02  4.1159e-03  1.7485e-02  3.8028e-01  2.1017e-02  1.0807e-02  7.7436e-03  0:04:56 1949
    52  2.1064e-02  4.0734e-03  1.7900e-02  3.9488e-01  2.1086e-02  1.0782e-02  7.6321e-03  0:03:57 1948
    53  2.0992e-02  4.0274e-03  1.8488e-02  4.0041e-01  2.1022e-02  1.0578e-02  7.4258e-03  0:09:39 1947
    54  2.0918e-02  3.9514e-03  1.9170e-02  4.0914e-01  2.0956e-02  1.0796e-02  7.3978e-03  0:07:43 1946
    55  2.1010e-02  3.9119e-03  1.9881e-02  4.1897e-01  2.1055e-02  1.0958e-02  7.3838e-03  0:06:10 1945

  iter  continuity  x-velocity  y-velocity  z-velocity      energy           k       omega     time/iter
    56  2.1158e-02  3.9047e-03  2.0605e-02  4.2861e-01  2.1203e-02  1.0971e-02  7.2949e-03  0:04:56 1944
    57  2.1301e-02  3.8662e-03  2.1307e-02  4.3675e-01  2.1343e-02  1.0681e-02  7.1104e-03  0:03:57 1943
    58  2.1376e-02  3.8147e-03  2.1990e-02  4.4439e-01  2.1411e-02  1.0762e-02  7.0876e-03  0:09:38 1942
    59  2.1419e-02  3.7393e-03  2.2698e-02  4.5159e-01  2.1444e-02  1.0964e-02  7.1007e-03  0:07:42 1941
    60  2.1435e-02  3.6790e-03  2.3303e-02  4.5643e-01  2.1451e-02  1.0988e-02  7.0884e-03  0:06:09 1940
    61  2.1473e-02  3.6630e-03  2.3778e-02  4.5835e-01  2.1479e-02  1.0951e-02  7.0136e-03  0:04:55 1939
    62  2.1555e-02  3.6842e-03  2.4224e-02  4.5974e-01  2.1554e-02  1.0781e-02  6.9997e-03  0:03:56 1938
    63  2.1795e-02  3.6435e-03  2.4403e-02  4.5419e-01  2.1788e-02  1.0873e-02  7.0147e-03  0:09:36 1937
    64  2.2026e-02  3.5181e-03  2.4452e-02  4.4710e-01  2.2015e-02  1.1003e-02  7.0445e-03  0:07:41 1936
    65  2.2229e-02  3.3700e-03  2.4455e-02  4.3807e-01  2.2216e-02  1.1151e-02  7.0900e-03  0:06:08 1935
    66  2.2355e-02  3.2678e-03  2.4505e-02  4.2702e-01  2.2340e-02  1.1263e-02  7.0845e-03  0:04:55 1934

  iter  continuity  x-velocity  y-velocity  z-velocity      energy           k       omega     time/iter
    67  2.2380e-02  3.1936e-03  2.4562e-02  4.1383e-01  2.2364e-02  1.1290e-02  7.0971e-03  0:03:56 1933
    68  2.2374e-02  3.1289e-03  2.4399e-02  3.9824e-01  2.2356e-02  1.1291e-02  7.1260e-03  0:09:35 1932
    69  2.2246e-02  3.1120e-03  2.4080e-02  3.8694e-01  2.2228e-02  1.1381e-02  7.1800e-03  0:07:40 1931
    70  2.2080e-02  3.1020e-03  2.3635e-02  3.7234e-01  2.2060e-02  1.1369e-02  7.1667e-03  0:06:07 1930
    71  2.1897e-02  3.0733e-03  2.3033e-02  3.6600e-01  2.1877e-02  1.1378e-02  7.2038e-03  0:04:54 1929
    72  2.1610e-02  3.0221e-03  2.2306e-02  3.6772e-01  2.1589e-02  1.1498e-02  7.2317e-03  0:03:55 1928
    73  2.1157e-02  3.0577e-03  2.1506e-02  3.6279e-01  2.1134e-02  1.1425e-02  7.2305e-03  0:09:33 1927
    74  2.0630e-02  3.1330e-03  2.0607e-02  3.3475e-01  2.0605e-02  1.1472e-02  7.2245e-03  0:07:38 1926
    75  1.9880e-02  3.2172e-03  1.9610e-02  3.1395e-01  1.9852e-02  1.1489e-02  7.2067e-03  0:06:06 1925
    76  1.9060e-02  3.2788e-03  1.8616e-02  3.0071e-01  1.9030e-02  1.1413e-02  7.1529e-03  0:04:53 1924
    77  1.8178e-02  3.3303e-03  1.7671e-02  2.9606e-01  1.8147e-02  1.1339e-02  7.1292e-03  0:03:54 1923

  iter  continuity  x-velocity  y-velocity  z-velocity      energy           k       omega     time/iter
    78  1.7282e-02  3.3799e-03  1.6795e-02  3.0000e-01  1.7249e-02  1.1285e-02  7.0803e-03  0:09:32 1922
    79  1.6461e-02  3.4280e-03  1.6009e-02  3.1170e-01  1.6428e-02  1.1247e-02  7.0416e-03  0:07:37 1921
    80  1.5667e-02  3.4624e-03  1.5341e-02  3.2683e-01  1.5636e-02  1.1196e-02  6.9722e-03  0:06:06 1920
    81  1.4944e-02  3.4818e-03  1.4807e-02  3.4378e-01  1.4916e-02  1.1206e-02  6.9409e-03  0:04:52 1919
    82  1.4322e-02  3.5058e-03  1.4247e-02  3.6182e-01  1.4297e-02  1.1187e-02  6.9232e-03  0:03:54 1918
    83  1.3848e-02  3.5449e-03  1.3877e-02  3.7941e-01  1.3828e-02  1.1133e-02  6.8352e-03  0:09:30 1917
    84  1.3556e-02  3.5986e-03  1.3722e-02  3.9657e-01  1.3541e-02  1.1132e-02  6.7746e-03  0:07:36 1916
    85  1.3373e-02  3.6453e-03  1.3712e-02  4.1293e-01  1.3364e-02  1.1162e-02  6.6626e-03  0:06:05 1915
    86  1.3319e-02  3.6733e-03  1.3818e-02  4.2850e-01  1.3316e-02  1.1086e-02  6.5630e-03  0:04:52 1914
    87  1.3445e-02  3.7097e-03  1.3993e-02  4.4314e-01  1.3447e-02  1.1010e-02  6.4759e-03  0:03:53 1913
    88  1.3775e-02  3.7529e-03  1.4224e-02  4.5687e-01  1.3782e-02  1.0975e-02  6.4048e-03  0:09:29 1912

  iter  continuity  x-velocity  y-velocity  z-velocity      energy           k       omega     time/iter
    89  1.4286e-02  3.8014e-03  1.4479e-02  4.6974e-01  1.4297e-02  1.0942e-02  6.3492e-03  0:07:35 1911
    90  1.4970e-02  3.8653e-03  1.4739e-02  4.8083e-01  1.4984e-02  1.0898e-02  6.2947e-03  0:06:04 1910
    91  1.5806e-02  3.9106e-03  1.4997e-02  4.8941e-01  1.5822e-02  1.0870e-02  6.2568e-03  0:04:51 1909
    92  1.6649e-02  3.9464e-03  1.5240e-02  4.9724e-01  1.6667e-02  1.0824e-02  6.2274e-03  0:03:52 1908
    93  1.7577e-02  3.9719e-03  1.5463e-02  5.0519e-01  1.7596e-02  1.0741e-02  6.2001e-03  0:09:27 1907
    94  1.8617e-02  3.9783e-03  1.5668e-02  5.1396e-01  1.8638e-02  1.0646e-02  6.1693e-03  0:07:34 1906
    95  1.9764e-02  3.9701e-03  1.5847e-02  5.2204e-01  1.9787e-02  1.0621e-02  6.1458e-03  0:06:03 1905
    96  2.0919e-02  3.9450e-03  1.6003e-02  5.2995e-01  2.0943e-02  1.0614e-02  6.1219e-03  0:04:50 1904
    97  2.2080e-02  3.9096e-03  1.6129e-02  5.3766e-01  2.2106e-02  1.0528e-02  6.0856e-03  0:03:52 1903
    98  2.3216e-02  3.8699e-03  1.6216e-02  5.4550e-01  2.3243e-02  1.0512e-02  6.0564e-03  0:09:26 1902
    99  2.4365e-02  3.8325e-03  1.6261e-02  5.5336e-01  2.4393e-02  1.0518e-02  6.0398e-03  0:07:32 1901

  iter  continuity  x-velocity  y-velocity  z-velocity      energy           k       omega     time/iter
   100  2.5466e-02  3.8167e-03  1.6265e-02  5.6115e-01  2.5496e-02  1.0488e-02  6.0305e-03  0:06:02 1900
   101  2.6538e-02  3.8100e-03  1.6215e-02  5.6858e-01  2.6569e-02  1.0447e-02  6.0151e-03  0:04:49 1899
   102  2.7459e-02  3.8130e-03  1.6116e-02  5.7543e-01  2.7491e-02  1.0392e-02  5.9949e-03  0:03:51 1898
   103  2.8114e-02  3.8231e-03  1.6020e-02  5.8101e-01  2.8147e-02  1.0328e-02  5.9690e-03  0:09:24 1897
   104  2.8434e-02  3.8536e-03  1.5892e-02  5.8530e-01  2.8468e-02  1.0275e-02  5.9396e-03  0:07:31 1896
   105  2.8300e-02  3.9161e-03  1.5737e-02  5.8739e-01  2.8335e-02  1.0224e-02  5.8995e-03  0:06:01 1895
   106  2.7660e-02  4.0008e-03  1.5540e-02  5.8721e-01  2.7695e-02  1.0177e-02  5.8512e-03  0:04:48 1894
   107  2.6402e-02  4.1142e-03  1.5281e-02  5.8463e-01  2.6436e-02  1.0132e-02  5.8252e-03  0:03:51 1893
   108  2.4549e-02  4.2341e-03  1.4940e-02  5.7996e-01  2.4581e-02  1.0076e-02  5.8039e-03  0:09:23 1892
   109  2.2240e-02  4.3649e-03  1.4495e-02  5.7322e-01  2.2269e-02  1.0066e-02  5.7859e-03  0:07:30 1891
   110  1.9617e-02  4.4818e-03  1.3980e-02  5.6449e-01  1.9641e-02  1.0036e-02  5.7322e-03  0:06:00 1890

  iter  continuity  x-velocity  y-velocity  z-velocity      energy           k       omega     time/iter
   111  1.6872e-02  4.5305e-03  1.3378e-02  5.5397e-01  1.6891e-02  9.9604e-03  5.6899e-03  0:04:48 1889
   112  1.4194e-02  4.5000e-03  1.2698e-02  5.4187e-01  1.4207e-02  9.9090e-03  5.6499e-03  0:03:50 1888
   113  1.1862e-02  4.3858e-03  1.1991e-02  5.2826e-01  1.1868e-02  9.8404e-03  5.6047e-03  0:09:21 1887
   114  1.0004e-02  4.1987e-03  1.1323e-02  5.1332e-01  1.0004e-02  9.7592e-03  5.5384e-03  0:07:29 1886
   115  8.7435e-03  3.9594e-03  1.0740e-02  4.9735e-01  8.7383e-03  9.7018e-03  5.4696e-03  0:05:59 1885
   116  8.1766e-03  3.6512e-03  1.0259e-02  4.7973e-01  8.1679e-03  9.6464e-03  5.3950e-03  0:04:47 1884
   117  8.2366e-03  3.3144e-03  9.8911e-03  4.6040e-01  8.2267e-03  9.5926e-03  5.2846e-03  0:03:49 1883
   118  8.7225e-03  2.9589e-03  9.6449e-03  4.3992e-01  8.7130e-03  9.5433e-03  5.1742e-03  0:09:20 1882
   119  9.3869e-03  2.6187e-03  9.4875e-03  4.1856e-01  9.3784e-03  9.4997e-03  5.0575e-03  0:07:28 1881
   120  1.0045e-02  2.2848e-03  9.3716e-03  3.9629e-01  1.0038e-02  9.4599e-03  4.9408e-03  0:05:58 1880
   121  1.0576e-02  1.9897e-03  9.2573e-03  3.7330e-01  1.0570e-02  9.4364e-03  4.8406e-03  0:04:46 1879

  iter  continuity  x-velocity  y-velocity  z-velocity      energy           k       omega     time/iter
   122  1.0922e-02  1.7607e-03  9.1267e-03  3.4988e-01  1.0915e-02  9.3913e-03  4.7569e-03  0:10:04 1878
   123  1.1036e-02  1.6193e-03  8.9793e-03  3.2640e-01  1.1029e-02  9.3513e-03  4.6837e-03  0:08:03 1877
   124  1.0977e-02  1.5526e-03  8.8014e-03  3.0323e-01  1.0968e-02  9.3135e-03  4.6219e-03  0:06:26 1876
   125  1.0827e-02  1.5476e-03  8.5872e-03  2.8141e-01  1.0817e-02  9.2760e-03  4.5686e-03  0:05:09 1875
   126  1.0604e-02  1.5880e-03  8.3736e-03  2.6211e-01  1.0592e-02  9.2439e-03  4.5137e-03  0:10:22 1874
   127  1.0317e-02  1.6762e-03  8.1932e-03  2.4647e-01  1.0303e-02  9.2306e-03  4.4680e-03  0:08:17 1873
   128  9.9770e-03  1.7555e-03  8.0333e-03  2.3547e-01  9.9597e-03  9.1937e-03  4.4336e-03  0:06:38 1872
   129  9.8456e-03  1.8253e-03  7.9015e-03  2.2854e-01  9.8260e-03  9.1711e-03  4.4076e-03  0:05:18 1871
   130  9.9064e-03  1.8933e-03  7.8111e-03  2.2541e-01  9.8850e-03  9.1714e-03  4.3764e-03  0:10:28 1870
   131  1.0096e-02  1.9701e-03  7.7599e-03  2.2589e-01  1.0074e-02  9.1657e-03  4.3623e-03  0:08:22 1869
   132  1.0379e-02  2.0436e-03  7.7447e-03  2.2980e-01  1.0355e-02  9.1518e-03  4.3469e-03  0:06:42 1868

  iter  continuity  x-velocity  y-velocity  z-velocity      energy           k       omega     time/iter
   133  1.0794e-02  2.0952e-03  7.7460e-03  2.3675e-01  1.0769e-02  9.1462e-03  4.3322e-03  0:05:21 1867
   134  1.1248e-02  2.1176e-03  7.7423e-03  2.4535e-01  1.1223e-02  9.1508e-03  4.3349e-03  0:10:30 1866
   135  1.1694e-02  2.1188e-03  7.7278e-03  2.5449e-01  1.1668e-02  9.1518e-03  4.3339e-03  0:08:24 1865
   136  1.2113e-02  2.1065e-03  7.7105e-03  2.6388e-01  1.2085e-02  9.1590e-03  4.3250e-03  0:06:43 1864
   137  1.2507e-02  2.0908e-03  7.6889e-03  2.7258e-01  1.2479e-02  9.1727e-03  4.3263e-03  0:05:22 1863
   138  1.2889e-02  2.0778e-03  7.6860e-03  2.8087e-01  1.2860e-02  9.1822e-03  4.3139e-03  0:04:17 1862
   139  1.3238e-02  2.0631e-03  7.7029e-03  2.8846e-01  1.3208e-02  9.1737e-03  4.3050e-03  0:09:38 1861
   140  1.3583e-02  2.0598e-03  7.7242e-03  2.9523e-01  1.3552e-02  9.1799e-03  4.2997e-03  0:07:42 1860
   141  1.3874e-02  2.0636e-03  7.7764e-03  3.0078e-01  1.3843e-02  9.2080e-03  4.2842e-03  0:06:10 1859
   142  1.4140e-02  2.0699e-03  7.8628e-03  3.0499e-01  1.4108e-02  9.2205e-03  4.2680e-03  0:04:55 1858
   143  1.4404e-02  2.0846e-03  7.9835e-03  3.0786e-01  1.4372e-02  9.2467e-03  4.2446e-03  0:03:56 1857

  iter  continuity  x-velocity  y-velocity  z-velocity      energy           k       omega     time/iter
   144  1.4644e-02  2.1019e-03  8.1136e-03  3.0939e-01  1.4612e-02  9.2893e-03  4.2265e-03  0:09:20 1856
   145  1.4830e-02  2.1266e-03  8.2679e-03  3.0958e-01  1.4798e-02  9.3268e-03  4.2042e-03  0:07:28 1855
   146  1.4994e-02  2.1560e-03  8.4546e-03  3.0858e-01  1.4962e-02  9.3572e-03  4.1791e-03  0:05:58 1854
   147  1.5135e-02  2.1893e-03  8.6519e-03  3.0701e-01  1.5103e-02  9.3968e-03  4.1669e-03  0:04:46 1853
   148  1.5228e-02  2.2331e-03  8.8709e-03  3.0436e-01  1.5196e-02  9.4325e-03  4.1591e-03  0:03:49 1852
   149  1.5392e-02  2.2846e-03  9.1087e-03  3.0064e-01  1.5361e-02  9.4639e-03  4.1442e-03  0:09:13 1851
   150  1.5617e-02  2.3373e-03  9.3651e-03  2.9567e-01  1.5588e-02  9.4929e-03  4.1513e-03  0:07:22 1850
   151  1.5913e-02  2.3878e-03  9.6399e-03  2.8953e-01  1.5885e-02  9.5275e-03  4.1688e-03  0:05:54 1849
   152  1.6275e-02  2.4428e-03  9.9146e-03  2.8252e-01  1.6248e-02  9.5589e-03  4.1812e-03  0:04:43 1848
   153  1.6550e-02  2.4983e-03  1.0190e-02  2.7460e-01  1.6525e-02  9.6049e-03  4.1948e-03  0:09:56 1847
   154  1.6779e-02  2.5516e-03  1.0427e-02  2.6530e-01  1.6755e-02  9.6526e-03  4.2047e-03  0:07:56 1846

  iter  continuity  x-velocity  y-velocity  z-velocity      energy           k       omega     time/iter
   155  1.6923e-02  2.5998e-03  1.0657e-02  2.5538e-01  1.6901e-02  9.6796e-03  4.2119e-03  0:06:21 1845
   156  1.6990e-02  2.6439e-03  1.0885e-02  2.4485e-01  1.6969e-02  9.6895e-03  4.2107e-03  0:05:04 1844
   157  1.6981e-02  2.6824e-03  1.1108e-02  2.3416e-01  1.6962e-02  9.7155e-03  4.2195e-03  0:10:12 1843
   158  1.6894e-02  2.7199e-03  1.1321e-02  2.2429e-01  1.6876e-02  9.7258e-03  4.2241e-03  0:08:09 1842
   159  1.6686e-02  2.7496e-03  1.1535e-02  2.1591e-01  1.6670e-02  9.7264e-03  4.2311e-03  0:06:31 1841
   160  1.6357e-02  2.7746e-03  1.1747e-02  2.0932e-01  1.6343e-02  9.7302e-03  4.2566e-03  0:05:13 1840
   161  1.6191e-02  2.9606e-03  1.2152e-02  2.0517e-01  1.6179e-02  9.7128e-03  4.2883e-03  0:10:18 1839
   162  1.5543e-02  2.9084e-03  1.2270e-02  2.0385e-01  1.5532e-02  9.7120e-03  4.3003e-03  0:08:14 1838
   163  1.4747e-02  2.7957e-03  1.2340e-02  2.0524e-01  1.4735e-02  9.7286e-03  4.2959e-03  0:06:35 1837
   164  1.4030e-02  2.8104e-03  1.2410e-02  2.0869e-01  1.4019e-02  9.7296e-03  4.2883e-03  0:05:16 1836
   165  1.3306e-02  2.8252e-03  1.2534e-02  2.1401e-01  1.3296e-02  9.7128e-03  4.2848e-03  0:04:13 1835

  iter  continuity  x-velocity  y-velocity  z-velocity      energy           k       omega     time/iter
   166  1.2525e-02  2.8273e-03  1.2629e-02  2.2088e-01  1.2515e-02  9.6972e-03  4.2777e-03  0:09:29 1834
   167  1.1763e-02  2.8197e-03  1.2701e-02  2.2895e-01  1.1753e-02  9.6986e-03  4.2853e-03  0:07:35 1833
   168  1.1036e-02  2.8082e-03  1.2733e-02  2.3778e-01  1.1027e-02  9.6921e-03  4.3078e-03  0:06:04 1832
   169  1.0337e-02  2.7939e-03  1.2740e-02  2.4696e-01  1.0328e-02  9.6543e-03  4.3117e-03  0:04:51 1831
   170  9.7276e-03  2.7793e-03  1.2725e-02  2.5620e-01  9.7192e-03  9.6513e-03  4.3128e-03  0:03:52 1830
   171  9.2540e-03  2.7630e-03  1.2683e-02  2.6495e-01  9.2459e-03  9.6592e-03  4.3233e-03  0:09:12 1829
   172  8.9385e-03  2.7448e-03  1.2615e-02  2.7282e-01  8.9306e-03  9.6323e-03  4.3082e-03  0:07:21 1828
   173  8.7729e-03  2.7173e-03  1.2521e-02  2.8008e-01  8.7650e-03  9.5897e-03  4.2984e-03  0:05:53 1827
   174  8.7426e-03  2.6903e-03  1.2407e-02  2.8697e-01  8.7345e-03  9.5473e-03  4.2796e-03  0:04:42 1826
   175  8.8166e-03  2.6601e-03  1.2268e-02  2.9289e-01  8.8082e-03  9.5250e-03  4.2768e-03  0:09:50 1825
   176  8.9451e-03  2.6306e-03  1.2109e-02  2.9804e-01  8.9362e-03  9.4470e-03  4.2662e-03  0:07:52 1824

  iter  continuity  x-velocity  y-velocity  z-velocity      energy           k       omega     time/iter
   177  9.1058e-03  2.6041e-03  1.1935e-02  3.0203e-01  9.0964e-03  9.4327e-03  4.2678e-03  0:06:17 1823
   178  9.2953e-03  2.5703e-03  1.1746e-02  3.0492e-01  9.2852e-03  9.3957e-03  4.2649e-03  0:05:02 1822
   179  9.5087e-03  2.5425e-03  1.1550e-02  3.0598e-01  9.4978e-03  9.3070e-03  4.2468e-03  0:10:06 1821
   180  9.7391e-03  2.5212e-03  1.1335e-02  3.0666e-01  9.7274e-03  9.2362e-03  4.2571e-03  0:08:04 1820
   181  9.9753e-03  2.5097e-03  1.1113e-02  3.0711e-01  9.9627e-03  9.1870e-03  4.2631e-03  0:06:27 1819
   182  1.0220e-02  2.5083e-03  1.0890e-02  3.0736e-01  1.0207e-02  9.1233e-03  4.2707e-03  0:05:10 1818
   183  1.0495e-02  2.5124e-03  1.0663e-02  3.0771e-01  1.0481e-02  9.0405e-03  4.2729e-03  0:04:07 1817
   184  1.0725e-02  2.5252e-03  1.0439e-02  3.0744e-01  1.0710e-02  9.0190e-03  4.2574e-03  0:09:21 1816
   185  1.0872e-02  2.5450e-03  1.0226e-02  3.0679e-01  1.0856e-02  8.9679e-03  4.2690e-03  0:07:29 1815
   186  1.1031e-02  2.5695e-03  1.0015e-02  3.0618e-01  1.1014e-02  8.9149e-03  4.2811e-03  0:05:59 1814
   187  1.1207e-02  2.5896e-03  9.8153e-03  3.0573e-01  1.1190e-02  8.8812e-03  4.3182e-03  0:10:49 1813

  iter  continuity  x-velocity  y-velocity  z-velocity      energy           k       omega     time/iter
   188  1.1407e-02  2.6145e-03  9.6405e-03  3.0588e-01  1.1389e-02  8.8681e-03  4.3222e-03  0:08:39 1812
   189  1.1582e-02  2.6385e-03  9.4903e-03  3.0593e-01  1.1564e-02  8.8656e-03  4.3313e-03  0:06:55 1811
   190  1.1804e-02  2.6547e-03  9.3346e-03  3.0762e-01  1.1786e-02  8.8102e-03  4.3426e-03  0:05:32 1810
   191  1.2036e-02  2.6649e-03  9.2076e-03  3.0793e-01  1.2018e-02  8.8360e-03  4.3593e-03  0:10:27 1809
   192  1.2328e-02  2.6822e-03  9.1471e-03  3.0874e-01  1.2310e-02  8.8428e-03  4.3664e-03  0:08:21 1808
   193  1.2680e-02  2.6987e-03  9.1279e-03  3.0899e-01  1.2663e-02  8.8398e-03  4.3697e-03  0:06:41 1807
   194  1.3045e-02  2.7142e-03  9.1324e-03  3.0888e-01  1.3029e-02  8.8832e-03  4.3730e-03  0:05:21 1806
   195  1.3423e-02  2.7282e-03  9.1644e-03  3.0702e-01  1.3408e-02  8.9374e-03  4.3789e-03  0:04:16 1805
   196  1.3811e-02  2.7410e-03  9.2192e-03  3.0572e-01  1.3797e-02  8.9651e-03  4.3684e-03  0:09:26 1804
   197  1.4219e-02  2.7468e-03  9.2910e-03  3.0285e-01  1.4205e-02  8.9603e-03  4.3691e-03  0:07:32 1803
   198  1.4609e-02  2.7426e-03  9.3747e-03  2.9886e-01  1.4597e-02  8.9603e-03  4.3543e-03  0:06:02 1802

  iter  continuity  x-velocity  y-velocity  z-velocity      energy           k       omega     time/iter
   199  1.4996e-02  2.7247e-03  9.4640e-03  2.9572e-01  1.4985e-02  8.9584e-03  4.3401e-03  0:04:49 1801
   200  1.5337e-02  2.6929e-03  9.5612e-03  2.9151e-01  1.5328e-02  8.9723e-03  4.3070e-03  0:09:51 1800
   201  1.5578e-02  2.6473e-03  9.6549e-03  2.8767e-01  1.5570e-02  8.9933e-03  4.2720e-03  0:07:53 1799
   202  1.5816e-02  2.5970e-03  9.7402e-03  2.8383e-01  1.5809e-02  8.9937e-03  4.2183e-03  0:06:18 1798
   203  1.6080e-02  2.5442e-03  9.8172e-03  2.7970e-01  1.6074e-02  8.9561e-03  4.1721e-03  0:05:02 1797
   204  1.6225e-02  2.4922e-03  9.8918e-03  2.7477e-01  1.6220e-02  8.9185e-03  4.1329e-03  0:10:01 1796
   205  1.6369e-02  2.4453e-03  9.9571e-03  2.6901e-01  1.6364e-02  8.8767e-03  4.0899e-03  0:08:00 1795
   206  1.6417e-02  2.4048e-03  1.0004e-02  2.6283e-01  1.6413e-02  8.8245e-03  4.0482e-03  0:06:24 1794
   207  1.6333e-02  2.3734e-03  1.0038e-02  2.5695e-01  1.6329e-02  8.7956e-03  4.0001e-03  0:05:07 1793
   208  1.6112e-02  2.3563e-03  1.0062e-02  2.5118e-01  1.6108e-02  8.7754e-03  3.9312e-03  0:10:04 1792
   209  1.5802e-02  2.3512e-03  1.0076e-02  2.4608e-01  1.5799e-02  8.7302e-03  3.8662e-03  0:08:03 1791

  iter  continuity  x-velocity  y-velocity  z-velocity      energy           k       omega     time/iter
   210  1.5278e-02  2.3540e-03  1.0076e-02  2.4185e-01  1.5274e-02  8.6674e-03  3.8177e-03  0:06:26 1790
   211  1.4765e-02  2.3612e-03  1.0061e-02  2.3935e-01  1.4762e-02  8.6135e-03  3.7703e-03  0:05:09 1789
   212  1.4229e-02  2.3753e-03  1.0035e-02  2.3835e-01  1.4225e-02  8.5393e-03  3.7131e-03  0:10:04 1788
   213  1.3601e-02  2.3912e-03  9.9937e-03  2.3942e-01  1.3597e-02  8.4602e-03  3.6672e-03  0:08:03 1787
   214  1.2913e-02  2.4101e-03  9.9463e-03  2.4202e-01  1.2909e-02  8.4000e-03  3.6144e-03  0:06:26 1786
   215  1.2037e-02  2.4288e-03  9.8905e-03  2.4594e-01  1.2033e-02  8.3589e-03  3.5760e-03  0:05:09 1785
   216  1.1137e-02  2.4491e-03  9.8337e-03  2.5082e-01  1.1132e-02  8.3188e-03  3.5407e-03  0:04:07 1784
   217  1.0109e-02  2.4598e-03  9.7744e-03  2.5588e-01  1.0103e-02  8.2685e-03  3.5085e-03  0:09:14 1783
   218  9.1271e-03  2.4595e-03  9.7161e-03  2.6084e-01  9.1208e-03  8.2122e-03  3.4774e-03  0:07:23 1782
   219  8.5798e-03  2.4386e-03  9.6811e-03  2.6522e-01  8.5733e-03  8.1669e-03  3.4478e-03  0:05:54 1781
   220  8.0103e-03  2.4160e-03  9.6664e-03  2.6984e-01  8.0036e-03  8.1203e-03  3.4233e-03  0:04:43 1780

  iter  continuity  x-velocity  y-velocity  z-velocity      energy           k       omega     time/iter
   221  7.3265e-03  2.3739e-03  9.6646e-03  2.7412e-01  7.3195e-03  8.0735e-03  3.3948e-03  0:09:42 1779
   222  6.6944e-03  2.3138e-03  9.6760e-03  2.7793e-01  6.6873e-03  8.0114e-03  3.3665e-03  0:07:46 1778
   223  6.2180e-03  2.2412e-03  9.6905e-03  2.8159e-01  6.2109e-03  7.9531e-03  3.3393e-03  0:06:12 1777
   224  5.9399e-03  2.1563e-03  9.7138e-03  2.8475e-01  5.9333e-03  7.9160e-03  3.3042e-03  0:04:58 1776
   225  5.8234e-03  2.0626e-03  9.7419e-03  2.8709e-01  5.8172e-03  7.9014e-03  3.2731e-03  0:09:53 1775
   226  5.8002e-03  1.9625e-03  9.7651e-03  2.8865e-01  5.7947e-03  7.8978e-03  3.2443e-03  0:07:54 1774
   227  5.8240e-03  1.8618e-03  9.7871e-03  2.8948e-01  5.8191e-03  7.8952e-03  3.2269e-03  0:06:19 1773
   228  5.8718e-03  1.7658e-03  9.8020e-03  2.8963e-01  5.8675e-03  7.9045e-03  3.2066e-03  0:05:03 1772
   229  5.9107e-03  1.6791e-03  9.8065e-03  2.8928e-01  5.9069e-03  7.8904e-03  3.1868e-03  0:04:02 1771
   230  5.9440e-03  1.6038e-03  9.8004e-03  2.8818e-01  5.9405e-03  7.8531e-03  3.1640e-03  0:09:08 1770
   231  5.9352e-03  1.5430e-03  9.7818e-03  2.8685e-01  5.9320e-03  7.8304e-03  3.1509e-03  0:07:18 1769

  iter  continuity  x-velocity  y-velocity  z-velocity      energy           k       omega     time/iter
   232  5.8846e-03  1.4943e-03  9.7503e-03  2.8601e-01  5.8815e-03  7.7979e-03  3.1349e-03  0:05:50 1768
   233  5.8186e-03  1.4557e-03  9.7056e-03  2.8512e-01  5.8156e-03  7.7640e-03  3.1119e-03  0:04:40 1767
   234  5.7033e-03  1.4268e-03  9.6484e-03  2.8376e-01  5.7001e-03  7.7430e-03  3.0928e-03  0:09:37 1766
   235  5.5462e-03  1.4056e-03  9.5779e-03  2.8182e-01  5.5427e-03  7.7466e-03  3.0832e-03  0:07:41 1765
   236  5.3514e-03  1.3912e-03  9.4978e-03  2.7930e-01  5.3476e-03  7.7436e-03  3.0766e-03  0:06:09 1764
   237  5.1520e-03  1.3823e-03  9.4111e-03  2.7550e-01  5.1476e-03  7.7204e-03  3.0744e-03  0:10:48 1763
   238  4.9093e-03  1.3780e-03  9.3208e-03  2.7182e-01  4.9042e-03  7.7221e-03  3.0765e-03  0:08:38 1762
   239  4.7174e-03  1.3753e-03  9.2303e-03  2.6719e-01  4.7115e-03  7.7171e-03  3.0690e-03  0:06:54 1761
   240  4.5954e-03  1.3658e-03  9.1413e-03  2.6178e-01  4.5889e-03  7.6927e-03  3.0586e-03  0:05:31 1760
   241  4.5410e-03  1.3574e-03  9.0560e-03  2.5580e-01  4.5340e-03  7.6608e-03  3.0548e-03  0:10:16 1759
   242  4.5745e-03  1.3508e-03  8.9752e-03  2.4914e-01  4.5671e-03  7.6355e-03  3.0411e-03  0:08:13 1758

  iter  continuity  x-velocity  y-velocity  z-velocity      energy           k       omega     time/iter
   243  4.6703e-03  1.3464e-03  8.9025e-03  2.4176e-01  4.6628e-03  7.6084e-03  3.0294e-03  0:06:34 1757
   244  4.8534e-03  1.3407e-03  8.8391e-03  2.3360e-01  4.8458e-03  7.5776e-03  3.0157e-03  0:05:15 1756
   245  5.1253e-03  1.3368e-03  8.7850e-03  2.2499e-01  5.1179e-03  7.5576e-03  3.0072e-03  0:10:03 1755
   246  5.4777e-03  1.3308e-03  8.7411e-03  2.1640e-01  5.4705e-03  7.5300e-03  2.9991e-03  0:08:02 1754
   247  5.8804e-03  1.3285e-03  8.7051e-03  2.0764e-01  5.8735e-03  7.4951e-03  2.9989e-03  0:06:25 1753
   248  6.3140e-03  1.3292e-03  8.6774e-03  1.9877e-01  6.3073e-03  7.4783e-03  2.9912e-03  0:10:59 1752
   249  6.7678e-03  1.3336e-03  8.6570e-03  1.9003e-01  6.7614e-03  7.4636e-03  2.9885e-03  0:08:47 1751
   250  7.2437e-03  1.3432e-03  8.6412e-03  1.8150e-01  7.2377e-03  7.4294e-03  2.9816e-03  0:07:01 1750
   251  7.7314e-03  1.3568e-03  8.6296e-03  1.7329e-01  7.7256e-03  7.4066e-03  2.9674e-03  0:05:37 1749
   252  8.1282e-03  1.3733e-03  8.6210e-03  1.6568e-01  8.1227e-03  7.3744e-03  2.9603e-03  0:10:19 1748
   253  8.4298e-03  1.3934e-03  8.6122e-03  1.5873e-01  8.4244e-03  7.3489e-03  2.9596e-03  0:08:15 1747

  iter  continuity  x-velocity  y-velocity  z-velocity      energy           k       omega     time/iter
   254  8.6932e-03  1.4162e-03  8.5999e-03  1.5243e-01  8.6879e-03  7.3247e-03  2.9525e-03  0:06:36 1746
   255  9.0574e-03  1.4411e-03  8.5880e-03  1.4744e-01  9.0522e-03  7.2948e-03  2.9518e-03  0:05:16 1745
   256  9.3618e-03  1.4651e-03  8.5760e-03  1.4345e-01  9.3568e-03  7.2933e-03  2.9586e-03  0:10:02 1744
   257  9.5761e-03  1.4860e-03  8.5609e-03  1.4041e-01  9.5711e-03  7.2908e-03  2.9664e-03  0:08:01 1743
   258  9.7425e-03  1.5029e-03  8.5412e-03  1.3928e-01  9.7374e-03  7.2807e-03  2.9782e-03  0:06:25 1742
   259  9.8074e-03  1.5124e-03  8.5180e-03  1.3940e-01  9.8022e-03  7.2906e-03  2.9835e-03  0:05:08 1741
   260  9.7975e-03  1.5136e-03  8.4903e-03  1.4025e-01  9.7919e-03  7.3014e-03  2.9883e-03  0:09:54 1740
   261  9.7878e-03  1.5056e-03  8.4565e-03  1.4260e-01  9.7818e-03  7.3075e-03  2.9934e-03  0:07:55 1739
   262  9.8281e-03  1.4864e-03  8.4198e-03  1.4613e-01  9.8220e-03  7.3188e-03  3.0002e-03  0:06:20 1738
   263  9.8657e-03  1.4587e-03  8.3798e-03  1.5046e-01  9.8597e-03  7.3288e-03  3.0000e-03  0:10:51 1737
   264  9.9401e-03  1.4236e-03  8.3404e-03  1.5592e-01  9.9342e-03  7.3453e-03  2.9974e-03  0:08:40 1736

  iter  continuity  x-velocity  y-velocity  z-velocity      energy           k       omega     time/iter
   265  1.0029e-02  1.3842e-03  8.3018e-03  1.6197e-01  1.0023e-02  7.3453e-03  2.9934e-03  0:06:56 1735
   266  1.0105e-02  1.3494e-03  8.2636e-03  1.6954e-01  1.0099e-02  7.3454e-03  2.9915e-03  0:05:33 1734
   267  1.0142e-02  1.3206e-03  8.2216e-03  1.7779e-01  1.0137e-02  7.3747e-03  2.9885e-03  0:10:13 1733
   268  1.0129e-02  1.2993e-03  8.1773e-03  1.8664e-01  1.0124e-02  7.4027e-03  2.9866e-03  0:08:10 1732
   269  1.0060e-02  1.2855e-03  8.1291e-03  1.9632e-01  1.0056e-02  7.4236e-03  2.9812e-03  0:06:32 1731
   270  9.9392e-03  1.2797e-03  8.0810e-03  2.0622e-01  9.9344e-03  7.4567e-03  2.9751e-03  0:10:59 1730
   271  9.7647e-03  1.2825e-03  8.0339e-03  2.1628e-01  9.7601e-03  7.4940e-03  2.9668e-03  0:08:47 1729
   272  9.5340e-03  1.2911e-03  7.9884e-03  2.2609e-01  9.5295e-03  7.5337e-03  2.9600e-03  0:07:01 1728
   273  9.2700e-03  1.3015e-03  7.9439e-03  2.3589e-01  9.2655e-03  7.5647e-03  2.9532e-03  0:05:37 1727
   274  8.9854e-03  1.3135e-03  7.9004e-03  2.4573e-01  8.9809e-03  7.5852e-03  2.9392e-03  0:10:15 1726
   275  8.6718e-03  1.3274e-03  7.8618e-03  2.5518e-01  8.6674e-03  7.6255e-03  2.9281e-03  0:08:11 1725

  iter  continuity  x-velocity  y-velocity  z-velocity      energy           k       omega     time/iter
   276  8.3369e-03  1.3420e-03  7.8287e-03  2.6442e-01  8.3326e-03  7.6625e-03  2.9079e-03  0:06:33 1724
   277  7.9913e-03  1.3578e-03  7.8007e-03  2.7334e-01  7.9870e-03  7.6935e-03  2.8884e-03  0:05:14 1723
   278  7.6336e-03  1.3745e-03  7.7776e-03  2.8168e-01  7.6293e-03  7.7144e-03  2.8732e-03  0:04:11 1722
   279  7.2573e-03  1.3902e-03  7.7584e-03  2.8882e-01  7.2529e-03  7.7407e-03  2.8603e-03  0:09:05 1721
   280  6.8795e-03  1.4048e-03  7.7423e-03  2.9535e-01  6.8750e-03  7.7723e-03  2.8434e-03  0:07:16 1720
   281  6.4898e-03  1.4173e-03  7.7274e-03  3.0159e-01  6.4851e-03  7.8003e-03  2.8257e-03  0:05:48 1719
   282  6.0991e-03  1.4288e-03  7.7161e-03  3.0730e-01  6.0941e-03  7.8272e-03  2.8163e-03  0:10:22 1718
   283  5.7170e-03  1.4396e-03  7.7067e-03  3.1229e-01  5.7116e-03  7.8415e-03  2.8038e-03  0:08:17 1717
   284  5.3820e-03  1.4487e-03  7.6990e-03  3.1675e-01  5.3761e-03  7.8737e-03  2.7936e-03  0:06:38 1716
   285  5.0755e-03  1.4567e-03  7.6956e-03  3.2063e-01  5.0690e-03  7.8930e-03  2.7848e-03  0:05:18 1715
   286  4.7859e-03  1.4655e-03  7.6961e-03  3.2383e-01  4.7788e-03  7.9089e-03  2.7812e-03  0:09:57 1714

  iter  continuity  x-velocity  y-velocity  z-velocity      energy           k       omega     time/iter
   287  4.5185e-03  1.4743e-03  7.6985e-03  3.2643e-01  4.5109e-03  7.9118e-03  2.7793e-03  0:07:57 1713
   288  4.2984e-03  1.4833e-03  7.7041e-03  3.2869e-01  4.2902e-03  7.9317e-03  2.7768e-03  0:06:22 1712
   289  4.1520e-03  1.4921e-03  7.7126e-03  3.3072e-01  4.1434e-03  7.9302e-03  2.7815e-03  0:05:05 1711
   290  4.0913e-03  1.5006e-03  7.7246e-03  3.3210e-01  4.0825e-03  7.9458e-03  2.7839e-03  0:09:46 1710
   291  4.0931e-03  1.5085e-03  7.7380e-03  3.3293e-01  4.0842e-03  7.9430e-03  2.7903e-03  0:07:49 1709
   292  4.1930e-03  1.5167e-03  7.7516e-03  3.3364e-01  4.1844e-03  7.9779e-03  2.7963e-03  0:06:15 1708
   293  4.3678e-03  1.5234e-03  7.7668e-03  3.3379e-01  4.3595e-03  7.9942e-03  2.7973e-03  0:04:59 1707
   294  4.6168e-03  1.5283e-03  7.7851e-03  3.3355e-01  4.6091e-03  8.0063e-03  2.8126e-03  0:09:41 1706
   295  4.9248e-03  1.5334e-03  7.8062e-03  3.3241e-01  4.9177e-03  8.0058e-03  2.8298e-03  0:07:44 1705
   296  5.2747e-03  1.5381e-03  7.8306e-03  3.3070e-01  5.2684e-03  8.0063e-03  2.8462e-03  0:06:11 1704
   297  5.6519e-03  1.5435e-03  7.8580e-03  3.2838e-01  5.6463e-03  7.9855e-03  2.8515e-03  0:04:57 1703

  iter  continuity  x-velocity  y-velocity  z-velocity      energy           k       omega     time/iter
   298  6.0548e-03  1.5496e-03  7.8890e-03  3.2547e-01  6.0500e-03  7.9850e-03  2.8668e-03  0:09:38 1702
   299  6.5024e-03  1.5528e-03  7.9253e-03  3.2219e-01  6.4984e-03  7.9778e-03  2.8866e-03  0:07:42 1701
   300  7.0062e-03  1.5565e-03  7.9648e-03  3.1879e-01  7.0030e-03  7.9651e-03  2.9047e-03  0:06:09 1700
   301  7.5323e-03  1.5603e-03  8.0063e-03  3.1494e-01  7.5299e-03  7.9663e-03  2.9200e-03  0:04:55 1699
   302  8.0165e-03  1.5640e-03  8.0485e-03  3.1076e-01  8.0148e-03  7.9843e-03  2.9341e-03  0:09:36 1698
   303  8.4942e-03  1.5706e-03  8.0893e-03  3.0632e-01  8.4931e-03  7.9905e-03  2.9487e-03  0:07:40 1697
   304  8.9684e-03  1.5789e-03  8.1275e-03  3.0154e-01  8.9678e-03  7.9960e-03  2.9666e-03  0:06:08 1696
   305  9.2937e-03  1.5919e-03  8.1611e-03  2.9664e-01  9.2934e-03  7.9863e-03  2.9795e-03  0:04:54 1695
   306  9.5859e-03  1.6083e-03  8.1963e-03  2.9178e-01  9.5859e-03  7.9986e-03  2.9952e-03  0:09:34 1694
   307  9.8133e-03  1.6279e-03  8.2316e-03  2.8678e-01  9.8134e-03  8.0022e-03  3.0022e-03  0:07:39 1693
   308  9.9611e-03  1.6503e-03  8.2681e-03  2.8177e-01  9.9613e-03  7.9901e-03  3.0002e-03  0:06:07 1692

  iter  continuity  x-velocity  y-velocity  z-velocity      energy           k       omega     time/iter
   309  1.0040e-02  1.6751e-03  8.3071e-03  2.7660e-01  1.0040e-02  7.9746e-03  3.0044e-03  0:10:32 1691
   310  1.0099e-02  1.7022e-03  8.3505e-03  2.7142e-01  1.0099e-02  8.0066e-03  3.0119e-03  0:08:25 1690
   311  1.0111e-02  1.7348e-03  8.3973e-03  2.6629e-01  1.0111e-02  8.0117e-03  3.0231e-03  0:06:44 1689
   312  1.0114e-02  1.7731e-03  8.4488e-03  2.6122e-01  1.0114e-02  8.0225e-03  3.0262e-03  0:05:23 1688
   313  1.0099e-02  1.8101e-03  8.5064e-03  2.5619e-01  1.0099e-02  8.0373e-03  3.0235e-03  0:09:55 1687
   314  9.9403e-03  1.8492e-03  8.5699e-03  2.5140e-01  9.9398e-03  8.0385e-03  3.0358e-03  0:07:56 1686
   315  9.5937e-03  1.8906e-03  8.6339e-03  2.4660e-01  9.5927e-03  8.0150e-03  3.0314e-03  0:06:21 1685
   316  9.1686e-03  1.9291e-03  8.6935e-03  2.4178e-01  9.1670e-03  7.9807e-03  3.0283e-03  0:05:04 1684
   317  8.6901e-03  1.9639e-03  8.7441e-03  2.3713e-01  8.6880e-03  7.9948e-03  3.0204e-03  0:09:40 1683
   318  8.1912e-03  1.9947e-03  8.7808e-03  2.3254e-01  8.1885e-03  7.9751e-03  3.0174e-03  0:07:44 1682
   319  7.6994e-03  2.0214e-03  8.8046e-03  2.2788e-01  7.6960e-03  7.9581e-03  3.0169e-03  0:06:11 1681

  iter  continuity  x-velocity  y-velocity  z-velocity      energy           k       omega     time/iter
   320  7.2230e-03  2.0431e-03  8.8162e-03  2.2335e-01  7.2191e-03  7.9346e-03  3.0151e-03  0:10:32 1680
   321  6.7488e-03  2.0586e-03  8.8182e-03  2.1879e-01  6.7444e-03  7.9252e-03  2.9977e-03  0:08:26 1679
   322  6.3140e-03  2.0666e-03  8.8143e-03  2.1408e-01  6.3090e-03  7.9305e-03  2.9698e-03  0:06:44 1678
   323  5.9656e-03  2.0686e-03  8.8068e-03  2.0950e-01  5.9602e-03  7.9061e-03  2.9513e-03  0:10:59 1677
   324  5.6546e-03  2.0640e-03  8.7985e-03  2.0489e-01  5.6488e-03  7.8861e-03  2.9387e-03  0:08:47 1676
   325  5.3751e-03  2.0527e-03  8.7907e-03  2.0009e-01  5.3690e-03  7.8652e-03  2.9170e-03  0:07:01 1675
   326  5.2015e-03  2.0324e-03  8.7856e-03  1.9535e-01  5.1953e-03  7.8462e-03  2.9089e-03  0:05:37 1674
   327  5.0904e-03  2.0029e-03  8.7837e-03  1.9101e-01  5.0842e-03  7.8470e-03  2.8925e-03  0:10:04 1673
   328  5.0084e-03  1.9669e-03  8.7846e-03  1.8714e-01  5.0021e-03  7.8112e-03  2.8636e-03  0:08:03 1672
   329  4.9811e-03  1.9279e-03  8.7827e-03  1.8364e-01  4.9749e-03  7.7980e-03  2.8415e-03  0:06:26 1671
   330  4.9415e-03  1.8887e-03  8.7771e-03  1.8025e-01  4.9353e-03  7.7992e-03  2.8265e-03  0:10:43 1670

  iter  continuity  x-velocity  y-velocity  z-velocity      energy           k       omega     time/iter
   331  4.8679e-03  1.8523e-03  8.7665e-03  1.7715e-01  4.8616e-03  7.7668e-03  2.8147e-03  0:08:34 1669
   332  4.7695e-03  1.8212e-03  8.7518e-03  1.7424e-01  4.7631e-03  7.7512e-03  2.7973e-03  0:06:51 1668
   333  4.6771e-03  1.7988e-03  8.7368e-03  1.7123e-01  4.6707e-03  7.7303e-03  2.7747e-03  0:11:02 1667
   334  4.6028e-03  1.7852e-03  8.7258e-03  1.6815e-01  4.5963e-03  7.6830e-03  2.7621e-03  0:08:49 1666
   335  4.5405e-03  1.7818e-03  8.7197e-03  1.6515e-01  4.5340e-03  7.6462e-03  2.7496e-03  0:07:03 1665
   336  4.4674e-03  1.7875e-03  8.7192e-03  1.6216e-01  4.4608e-03  7.6609e-03  2.7359e-03  0:05:38 1664
   337  4.3821e-03  1.8016e-03  8.7253e-03  1.5918e-01  4.3754e-03  7.6565e-03  2.7297e-03  0:10:03 1663
   338  4.2639e-03  1.8228e-03  8.7403e-03  1.5601e-01  4.2569e-03  7.6176e-03  2.7187e-03  0:08:02 1662
   339  4.1447e-03  1.8484e-03  8.7645e-03  1.5279e-01  4.1373e-03  7.6145e-03  2.7157e-03  0:06:25 1661
   340  4.0264e-03  1.8763e-03  8.7929e-03  1.4979e-01  4.0186e-03  7.6130e-03  2.7149e-03  0:05:08 1660
   341  3.9024e-03  1.9045e-03  8.8265e-03  1.4732e-01  3.8941e-03  7.6259e-03  2.7127e-03  0:09:38 1659

  iter  continuity  x-velocity  y-velocity  z-velocity      energy           k       omega     time/iter
   342  3.7815e-03  1.9323e-03  8.8671e-03  1.4502e-01  3.7729e-03  7.6139e-03  2.7163e-03  0:07:42 1658
   343  3.6775e-03  1.9586e-03  8.9121e-03  1.4271e-01  3.6685e-03  7.6215e-03  2.7183e-03  0:06:10 1657
   344  3.6042e-03  1.9822e-03  8.9598e-03  1.4049e-01  3.5949e-03  7.6348e-03  2.7231e-03  0:10:27 1656
   345  3.5691e-03  2.0039e-03  9.0117e-03  1.3843e-01  3.5597e-03  7.6571e-03  2.7244e-03  0:08:21 1655
   346  3.5748e-03  2.0239e-03  9.0673e-03  1.3681e-01  3.5654e-03  7.6726e-03  2.7310e-03  0:06:41 1654
   347  3.6148e-03  2.0419e-03  9.1276e-03  1.3547e-01  3.6056e-03  7.6778e-03  2.7481e-03  0:10:51 1653
   348  3.6856e-03  2.0589e-03  9.1926e-03  1.3449e-01  3.6767e-03  7.6748e-03  2.7667e-03  0:08:40 1652
   349  3.7811e-03  2.0754e-03  9.2605e-03  1.3406e-01  3.7725e-03  7.6920e-03  2.7827e-03  0:06:56 1651
   350  3.8867e-03  2.0941e-03  9.3309e-03  1.3389e-01  3.8784e-03  7.7161e-03  2.7910e-03  0:11:03 1650
   351  4.0016e-03  2.1137e-03  9.4029e-03  1.3401e-01  3.9937e-03  7.7220e-03  2.7966e-03  0:08:50 1649
   352  4.1133e-03  2.1322e-03  9.4744e-03  1.3486e-01  4.1058e-03  7.7315e-03  2.8097e-03  0:07:04 1648

  iter  continuity  x-velocity  y-velocity  z-velocity      energy           k       omega     time/iter
   353  4.2104e-03  2.1504e-03  9.5464e-03  1.3641e-01  4.2031e-03  7.7262e-03  2.8276e-03  0:05:39 1647
   354  4.2774e-03  2.1683e-03  9.6181e-03  1.3855e-01  4.2704e-03  7.7408e-03  2.8471e-03  0:10:00 1646
   355  4.3252e-03  2.1865e-03  9.6909e-03  1.4173e-01  4.3184e-03  7.7648e-03  2.8625e-03  0:08:00 1645
   356  4.3741e-03  2.2033e-03  9.7658e-03  1.4601e-01  4.3676e-03  7.7808e-03  2.8812e-03  0:06:24 1644
   357  4.3445e-03  2.2196e-03  9.8415e-03  1.5181e-01  4.3381e-03  7.7755e-03  2.9002e-03  0:05:07 1643
   358  4.3291e-03  2.2335e-03  9.9190e-03  1.5828e-01  4.3229e-03  7.7559e-03  2.9176e-03  0:09:34 1642
   359  4.2898e-03  2.2446e-03  9.9971e-03  1.6582e-01  4.2836e-03  7.7817e-03  2.9331e-03  0:07:39 1641
   360  4.2353e-03  2.2527e-03  1.0077e-02  1.7419e-01  4.2291e-03  7.8167e-03  2.9495e-03  0:06:07 1640
   361  4.1737e-03  2.2579e-03  1.0159e-02  1.8368e-01  4.1675e-03  7.8161e-03  2.9553e-03  0:10:21 1639
   362  4.1035e-03  2.2591e-03  1.0241e-02  1.9449e-01  4.0972e-03  7.8289e-03  2.9645e-03  0:08:16 1638
   363  4.0505e-03  2.2567e-03  1.0322e-02  2.0667e-01  4.0442e-03  7.8351e-03  2.9717e-03  0:06:37 1637

  iter  continuity  x-velocity  y-velocity  z-velocity      energy           k       omega     time/iter
   364  4.0204e-03  2.2525e-03  1.0402e-02  2.2004e-01  4.0141e-03  7.8346e-03  2.9795e-03  0:05:17 1636
   365  4.0249e-03  2.2461e-03  1.0480e-02  2.3461e-01  4.0186e-03  7.8369e-03  2.9866e-03  0:09:41 1635
   366  4.0467e-03  2.2373e-03  1.0554e-02  2.5044e-01  4.0405e-03  7.8436e-03  2.9932e-03  0:07:44 1634
   367  4.0756e-03  2.2252e-03  1.0626e-02  2.6666e-01  4.0695e-03  7.8161e-03  3.0005e-03  0:06:11 1633
   368  4.1035e-03  2.2120e-03  1.0698e-02  2.8324e-01  4.0976e-03  7.7944e-03  2.9951e-03  0:10:23 1632
   369  4.1458e-03  2.1979e-03  1.0768e-02  3.0176e-01  4.1399e-03  7.7792e-03  2.9951e-03  0:08:18 1631
   370  4.1958e-03  2.1818e-03  1.0837e-02  3.2226e-01  4.1900e-03  7.7570e-03  3.0012e-03  0:06:38 1630
   371  4.2538e-03  2.1644e-03  1.0904e-02  3.4350e-01  4.2480e-03  7.7525e-03  3.0111e-03  0:10:44 1629
   372  4.3171e-03  2.1479e-03  1.0964e-02  3.6638e-01  4.3114e-03  7.7413e-03  3.0104e-03  0:08:35 1628
   373  4.3816e-03  2.1315e-03  1.1021e-02  3.9079e-01  4.3759e-03  7.7046e-03  3.0129e-03  0:06:52 1627
   374  4.4341e-03  2.1160e-03  1.1076e-02  4.1519e-01  4.4283e-03  7.6698e-03  3.0055e-03  0:10:54 1626

  iter  continuity  x-velocity  y-velocity  z-velocity      energy           k       omega     time/iter
   375  4.4839e-03  2.1020e-03  1.1125e-02  4.4067e-01  4.4781e-03  7.6342e-03  2.9908e-03  0:08:43 1625
   376  4.5236e-03  2.0887e-03  1.1168e-02  4.6614e-01  4.5177e-03  7.5848e-03  2.9789e-03  0:06:58 1624
   377  4.5575e-03  2.0750e-03  1.1205e-02  4.9209e-01  4.5515e-03  7.5506e-03  2.9714e-03  0:05:34 1623
   378  4.5885e-03  2.0609e-03  1.1233e-02  5.1857e-01  4.5824e-03  7.5257e-03  2.9594e-03  0:09:52 1622
   379  4.6087e-03  2.0486e-03  1.1260e-02  5.4532e-01  4.6024e-03  7.4953e-03  2.9641e-03  0:07:53 1621
   380  4.6286e-03  2.0384e-03  1.1288e-02  5.7192e-01  4.6221e-03  7.4483e-03  2.9612e-03  0:06:18 1620
   381  4.6437e-03  2.0289e-03  1.1315e-02  5.9783e-01  4.6371e-03  7.4109e-03  2.9517e-03  0:10:26 1619
   382  4.6597e-03  2.0204e-03  1.1340e-02  6.2369e-01  4.6529e-03  7.3729e-03  2.9443e-03  0:08:21 1618
   383  4.6673e-03  2.0118e-03  1.1366e-02  6.4888e-01  4.6604e-03  7.3297e-03  2.9326e-03  0:06:40 1617
   384  4.6657e-03  2.0031e-03  1.1388e-02  6.7294e-01  4.6586e-03  7.2969e-03  2.9205e-03  0:10:43 1616
   385  4.6679e-03  1.9940e-03  1.1411e-02  6.9444e-01  4.6607e-03  7.2369e-03  2.9022e-03  0:08:34 1615

  iter  continuity  x-velocity  y-velocity  z-velocity      energy           k       omega     time/iter
   386  4.6674e-03  1.9839e-03  1.1432e-02  7.1346e-01  4.6599e-03  7.1598e-03  2.8797e-03  0:06:51 1614
   387  4.6683e-03  1.9724e-03  1.1451e-02  7.3006e-01  4.6607e-03  7.1208e-03  2.8641e-03  0:05:29 1613
   388  4.6716e-03  1.9601e-03  1.1469e-02  7.4424e-01  4.6638e-03  7.0981e-03  2.8543e-03  0:09:45 1612
   389  4.6700e-03  1.9470e-03  1.1488e-02  7.5609e-01  4.6620e-03  7.0885e-03  2.8400e-03  0:07:48 1611
   390  4.6713e-03  1.9329e-03  1.1505e-02  7.6594e-01  4.6631e-03  7.0879e-03  2.8328e-03  0:06:14 1610
   391  4.6693e-03  1.9182e-03  1.1525e-02  7.7441e-01  4.6611e-03  7.0842e-03  2.8258e-03  0:10:21 1609
   392  4.6661e-03  1.9031e-03  1.1545e-02  7.8064e-01  4.6576e-03  7.0624e-03  2.8156e-03  0:08:16 1608
   393  4.6583e-03  1.8885e-03  1.1567e-02  7.8336e-01  4.6498e-03  7.0325e-03  2.8059e-03  0:06:37 1607
   394  4.6408e-03  1.8738e-03  1.1588e-02  7.8195e-01  4.6322e-03  7.0033e-03  2.7967e-03  0:05:17 1606
   395  4.6145e-03  1.8596e-03  1.1612e-02  7.7818e-01  4.6057e-03  6.9778e-03  2.7787e-03  0:09:35 1605
   396  4.5774e-03  1.8454e-03  1.1639e-02  7.7137e-01  4.5686e-03  6.9493e-03  2.7649e-03  0:07:39 1604

  iter  continuity  x-velocity  y-velocity  z-velocity      energy           k       omega     time/iter
   397  4.5356e-03  1.8315e-03  1.1669e-02  7.6218e-01  4.5268e-03  6.9316e-03  2.7534e-03  0:11:28 1603
   398  4.4880e-03  1.8175e-03  1.1701e-02  7.5097e-01  4.4792e-03  6.9240e-03  2.7497e-03  0:09:10 1602
   399  4.4266e-03  1.8031e-03  1.1735e-02  7.3854e-01  4.4179e-03  6.9308e-03  2.7469e-03  0:07:20 1601
   400  4.3540e-03  1.7880e-03  1.1769e-02  7.2497e-01  4.3454e-03  6.9387e-03  2.7426e-03  0:11:12 1600
   401  4.2685e-03  1.7723e-03  1.1805e-02  7.0995e-01  4.2600e-03  6.9591e-03  2.7416e-03  0:08:57 1599
   402  4.1731e-03  1.7563e-03  1.1841e-02  6.9342e-01  4.1647e-03  6.9615e-03  2.7336e-03  0:07:09 1598
   403  4.0617e-03  1.7404e-03  1.1877e-02  6.7503e-01  4.0535e-03  6.9536e-03  2.7328e-03  0:05:43 1597
   404  3.9487e-03  1.7248e-03  1.1911e-02  6.5492e-01  3.9406e-03  6.9482e-03  2.7321e-03  0:09:54 1596
   405  3.8283e-03  1.7096e-03  1.1941e-02  6.3310e-01  3.8203e-03  6.9250e-03  2.7312e-03  0:07:55 1595
   406  3.7047e-03  1.6956e-03  1.1967e-02  6.0962e-01  3.6968e-03  6.9084e-03  2.7293e-03  0:06:19 1594
   407  3.5810e-03  1.6820e-03  1.1990e-02  5.8535e-01  3.5732e-03  6.8795e-03  2.7282e-03  0:10:22 1593

  iter  continuity  x-velocity  y-velocity  z-velocity      energy           k       omega     time/iter
   408  3.4608e-03  1.6693e-03  1.2009e-02  5.5909e-01  3.4531e-03  6.8650e-03  2.7310e-03  0:08:17 1592
   409  3.3416e-03  1.6580e-03  1.2023e-02  5.3175e-01  3.3340e-03  6.8855e-03  2.7310e-03  0:06:38 1591
   410  3.2109e-03  1.6471e-03  1.2035e-02  5.0337e-01  3.2034e-03  6.8923e-03  2.7348e-03  0:05:18 1590
   411  3.0974e-03  1.6376e-03  1.2044e-02  4.7519e-01  3.0900e-03  6.9055e-03  2.7453e-03  0:09:32 1589
   412  3.0031e-03  1.6295e-03  1.2048e-02  4.4755e-01  2.9957e-03  6.9066e-03  2.7475e-03  0:07:37 1588
   413  2.9166e-03  1.6226e-03  1.2046e-02  4.1985e-01  2.9093e-03  6.8975e-03  2.7433e-03  0:06:06 1587
   414  2.8521e-03  1.6172e-03  1.2040e-02  3.9432e-01  2.8449e-03  6.9060e-03  2.7444e-03  0:10:09 1586
   415  2.8159e-03  1.6133e-03  1.2032e-02  3.7289e-01  2.8088e-03  6.8980e-03  2.7429e-03  0:08:07 1585
   416  2.8001e-03  1.6107e-03  1.2021e-02  3.5378e-01  2.7931e-03  6.8882e-03  2.7400e-03  0:06:30 1584
   417  2.8010e-03  1.6096e-03  1.2007e-02  3.3914e-01  2.7940e-03  6.8750e-03  2.7425e-03  0:10:28 1583
   418  2.8269e-03  1.6100e-03  1.1989e-02  3.2973e-01  2.8200e-03  6.8727e-03  2.7466e-03  0:08:22 1582

  iter  continuity  x-velocity  y-velocity  z-velocity      energy           k       omega     time/iter
   419  2.8730e-03  1.6116e-03  1.1968e-02  3.2673e-01  2.8661e-03  6.8829e-03  2.7494e-03  0:06:41 1581
   420  2.9522e-03  1.6149e-03  1.1941e-02  3.2912e-01  2.9454e-03  6.8914e-03  2.7456e-03  0:10:37 1580
   421  3.0572e-03  1.6189e-03  1.1909e-02  3.3496e-01  3.0505e-03  6.9047e-03  2.7425e-03  0:08:29 1579
   422  3.1881e-03  1.6239e-03  1.1872e-02  3.4433e-01  3.1813e-03  6.9097e-03  2.7435e-03  0:06:47 1578
   423  3.3607e-03  1.6298e-03  1.1831e-02  3.5692e-01  3.3540e-03  6.9165e-03  2.7460e-03  0:10:41 1577
   424  3.5663e-03  1.6363e-03  1.1786e-02  3.7026e-01  3.5596e-03  6.9170e-03  2.7479e-03  0:08:32 1576
   425  3.7743e-03  1.6432e-03  1.1739e-02  3.8533e-01  3.7675e-03  6.9248e-03  2.7430e-03  0:06:50 1575
   426  4.0120e-03  1.6503e-03  1.1689e-02  4.0085e-01  4.0051e-03  6.9255e-03  2.7285e-03  0:10:42 1574
   427  4.3232e-03  1.6582e-03  1.1640e-02  4.1712e-01  4.3163e-03  6.9280e-03  2.7190e-03  0:08:34 1573
   428  4.5951e-03  1.6670e-03  1.1590e-02  4.3185e-01  4.5880e-03  6.9437e-03  2.7132e-03  0:06:51 1572
   429  4.8822e-03  1.6765e-03  1.1539e-02  4.4585e-01  4.8750e-03  6.9571e-03  2.7149e-03  0:10:42 1571

  iter  continuity  x-velocity  y-velocity  z-velocity      energy           k       omega     time/iter
   430  5.1218e-03  1.6863e-03  1.1488e-02  4.5808e-01  5.1144e-03  6.9682e-03  2.7131e-03  0:08:34 1570
   431  5.2899e-03  1.6967e-03  1.1436e-02  4.6788e-01  5.2824e-03  6.9764e-03  2.7220e-03  0:06:51 1569
   432  5.4539e-03  1.7077e-03  1.1384e-02  4.7668e-01  5.4463e-03  6.9722e-03  2.7270e-03  0:05:28 1568
   433  5.6325e-03  1.7190e-03  1.1330e-02  4.8430e-01  5.6248e-03  6.9750e-03  2.7206e-03  0:09:36 1567
   434  5.8120e-03  1.7287e-03  1.1277e-02  4.8984e-01  5.8041e-03  6.9795e-03  2.7126e-03  0:07:40 1566
   435  6.0077e-03  1.7383e-03  1.1222e-02  4.9467e-01  5.9997e-03  6.9802e-03  2.7070e-03  0:11:21 1565
   436  6.2211e-03  1.7489e-03  1.1168e-02  4.9818e-01  6.2131e-03  6.9857e-03  2.7027e-03  0:09:05 1564
   437  6.4315e-03  1.7565e-03  1.1114e-02  5.0040e-01  6.4234e-03  6.9939e-03  2.6988e-03  0:07:15 1563
   438  6.6617e-03  1.7640e-03  1.1061e-02  5.0118e-01  6.6536e-03  7.0083e-03  2.6911e-03  0:11:00 1562
   439  6.9067e-03  1.7705e-03  1.1009e-02  5.0149e-01  6.8987e-03  7.0178e-03  2.6836e-03  0:08:48 1561
   440  7.1297e-03  1.7758e-03  1.0961e-02  5.0126e-01  7.1217e-03  7.0255e-03  2.6776e-03  0:12:14 1560

  iter  continuity  x-velocity  y-velocity  z-velocity      energy           k       omega     time/iter
   441  7.3118e-03  1.7806e-03  1.0913e-02  4.9993e-01  7.3039e-03  7.0276e-03  2.6718e-03  0:09:47 1559
   442  7.4578e-03  1.7860e-03  1.0866e-02  4.9769e-01  7.4498e-03  7.0353e-03  2.6630e-03  0:07:49 1558
   443  7.5653e-03  1.7922e-03  1.0820e-02  4.9492e-01  7.5573e-03  7.0492e-03  2.6597e-03  0:11:27 1557
   444  7.6448e-03  1.7986e-03  1.0777e-02  4.9109e-01  7.6368e-03  7.0489e-03  2.6503e-03  0:09:09 1556
   445  7.6985e-03  1.8046e-03  1.0735e-02  4.8743e-01  7.6904e-03  7.0464e-03  2.6402e-03  0:07:19 1555
   446  7.7339e-03  1.8113e-03  1.0697e-02  4.8405e-01  7.7257e-03  7.0524e-03  2.6289e-03  0:05:51 1554
   447  7.7534e-03  1.8167e-03  1.0662e-02  4.8063e-01  7.7451e-03  7.0529e-03  2.6237e-03  0:09:51 1553
   448  7.7609e-03  1.8210e-03  1.0627e-02  4.7807e-01  7.7525e-03  7.0550e-03  2.6219e-03  0:07:53 1552
   449  7.7523e-03  1.8240e-03  1.0594e-02  4.7635e-01  7.7437e-03  7.0728e-03  2.6235e-03  0:06:18 1551
   450  7.7232e-03  1.8277e-03  1.0563e-02  4.7583e-01  7.7145e-03  7.0784e-03  2.6186e-03  0:10:12 1550
   451  7.6769e-03  1.8321e-03  1.0533e-02  4.7367e-01  7.6681e-03  7.0795e-03  2.6179e-03  0:08:09 1549

  iter  continuity  x-velocity  y-velocity  z-velocity      energy           k       omega     time/iter
   452  7.6081e-03  1.8363e-03  1.0506e-02  4.7189e-01  7.5992e-03  7.0884e-03  2.6236e-03  0:06:31 1548
   453  7.5269e-03  1.8397e-03  1.0482e-02  4.7269e-01  7.5179e-03  7.0923e-03  2.6213e-03  0:10:22 1547
   454  7.4323e-03  1.8424e-03  1.0458e-02  4.7023e-01  7.4233e-03  7.0973e-03  2.6121e-03  0:08:17 1546
   455  7.3130e-03  1.8457e-03  1.0434e-02  4.6792e-01  7.3039e-03  7.0996e-03  2.5996e-03  0:06:38 1545
   456  7.1746e-03  1.8494e-03  1.0410e-02  4.6298e-01  7.1655e-03  7.1031e-03  2.5950e-03  0:10:27 1544
   457  7.0192e-03  1.8536e-03  1.0386e-02  4.5695e-01  7.0102e-03  7.1075e-03  2.5854e-03  0:08:21 1543
   458  6.8343e-03  1.8574e-03  1.0364e-02  4.4532e-01  6.8254e-03  7.1083e-03  2.5766e-03  0:06:41 1542
   459  6.6314e-03  1.8612e-03  1.0342e-02  4.3903e-01  6.6227e-03  7.1248e-03  2.5736e-03  0:05:20 1541
   460  6.4051e-03  1.8647e-03  1.0323e-02  4.3042e-01  6.3965e-03  7.1284e-03  2.5651e-03  0:09:24 1540
   461  6.1682e-03  1.8688e-03  1.0304e-02  4.1963e-01  6.1597e-03  7.1357e-03  2.5517e-03  0:07:31 1539
   462  5.9371e-03  1.8723e-03  1.0287e-02  4.0762e-01  5.9286e-03  7.1582e-03  2.5433e-03  0:06:01 1538

  iter  continuity  x-velocity  y-velocity  z-velocity      energy           k       omega     time/iter
   463  5.7272e-03  1.8756e-03  1.0272e-02  3.9583e-01  5.7188e-03  7.1740e-03  2.5415e-03  0:09:56 1537
   464  5.5547e-03  1.8786e-03  1.0260e-02  3.8506e-01  5.5463e-03  7.1835e-03  2.5450e-03  0:07:56 1536
   465  5.4123e-03  1.8821e-03  1.0252e-02  3.7664e-01  5.4038e-03  7.1986e-03  2.5403e-03  0:06:21 1535
   466  5.2822e-03  1.8870e-03  1.0244e-02  3.6982e-01  5.2737e-03  7.2146e-03  2.5353e-03  0:10:11 1534
   467  5.1152e-03  1.8894e-03  1.0235e-02  3.6229e-01  5.1065e-03  7.2241e-03  2.5366e-03  0:08:09 1533
   468  4.9321e-03  1.8902e-03  1.0228e-02  3.5457e-01  4.9234e-03  7.2431e-03  2.5334e-03  0:06:31 1532
   469  4.7296e-03  1.8904e-03  1.0223e-02  3.4643e-01  4.7208e-03  7.2612e-03  2.5327e-03  0:05:12 1531
   470  4.5230e-03  1.8905e-03  1.0220e-02  3.3861e-01  4.5141e-03  7.2754e-03  2.5302e-03  0:09:16 1530
   471  4.3104e-03  1.8903e-03  1.0219e-02  3.3000e-01  4.3014e-03  7.2920e-03  2.5290e-03  0:07:24 1529
   472  4.1071e-03  1.8893e-03  1.0219e-02  3.2243e-01  4.0981e-03  7.3069e-03  2.5301e-03  0:05:55 1528
   473  3.9036e-03  1.8869e-03  1.0221e-02  3.1573e-01  3.8946e-03  7.3142e-03  2.5292e-03  0:09:49 1527

  iter  continuity  x-velocity  y-velocity  z-velocity      energy           k       omega     time/iter
   474  3.7314e-03  1.8832e-03  1.0225e-02  3.1095e-01  3.7223e-03  7.3221e-03  2.5247e-03  0:07:51 1526
   475  3.5961e-03  1.8798e-03  1.0228e-02  3.0763e-01  3.5871e-03  7.3350e-03  2.5262e-03  0:06:17 1525
   476  3.5030e-03  1.8766e-03  1.0232e-02  3.0512e-01  3.4940e-03  7.3481e-03  2.5118e-03  0:10:06 1524
   477  3.4537e-03  1.8742e-03  1.0238e-02  3.0320e-01  3.4448e-03  7.3638e-03  2.5056e-03  0:08:04 1523
   478  3.4349e-03  1.8726e-03  1.0246e-02  3.0222e-01  3.4262e-03  7.3750e-03  2.5025e-03  0:06:27 1522
   479  3.4389e-03  1.8719e-03  1.0257e-02  3.0089e-01  3.4306e-03  7.3917e-03  2.5011e-03  0:10:14 1521
   480  3.4810e-03  1.8726e-03  1.0271e-02  2.9994e-01  3.4731e-03  7.4015e-03  2.5116e-03  0:08:11 1520
   481  3.5736e-03  1.8746e-03  1.0291e-02  2.9870e-01  3.5662e-03  7.4175e-03  2.5155e-03  0:06:32 1519
   482  3.7233e-03  1.8760e-03  1.0314e-02  2.9822e-01  3.7165e-03  7.4375e-03  2.5285e-03  0:10:17 1518
   483  3.9147e-03  1.8768e-03  1.0337e-02  2.9902e-01  3.9086e-03  7.4640e-03  2.5359e-03  0:08:13 1517
   484  4.1142e-03  1.8775e-03  1.0362e-02  2.9958e-01  4.1088e-03  7.4868e-03  2.5428e-03  0:06:35 1516

  iter  continuity  x-velocity  y-velocity  z-velocity      energy           k       omega     time/iter
   485  4.2836e-03  1.8783e-03  1.0387e-02  3.0010e-01  4.2786e-03  7.5245e-03  2.5452e-03  0:10:18 1515
   486  4.4580e-03  1.8798e-03  1.0411e-02  3.0080e-01  4.4535e-03  7.5451e-03  2.5472e-03  0:08:14 1514
   487  4.6304e-03  1.8820e-03  1.0433e-02  3.0154e-01  4.6264e-03  7.5664e-03  2.5524e-03  0:06:35 1513
   488  4.7962e-03  1.8851e-03  1.0453e-02  3.0237e-01  4.7926e-03  7.5879e-03  2.5511e-03  0:10:18 1512
   489  4.9497e-03  1.8904e-03  1.0467e-02  3.0490e-01  4.9464e-03  7.6023e-03  2.5505e-03  0:08:14 1511
   490  5.0981e-03  1.8961e-03  1.0479e-02  3.0737e-01  5.0950e-03  7.6010e-03  2.5547e-03  0:06:35 1510
   491  5.2318e-03  1.9014e-03  1.0493e-02  3.0993e-01  5.2288e-03  7.6163e-03  2.5520e-03  0:05:16 1509
   492  5.3166e-03  1.9055e-03  1.0511e-02  3.1120e-01  5.3137e-03  7.6327e-03  2.5479e-03  0:09:14 1508
   493  5.4001e-03  1.9087e-03  1.0531e-02  3.1346e-01  5.3973e-03  7.6359e-03  2.5455e-03  0:07:23 1507
   494  5.4737e-03  1.9109e-03  1.0556e-02  3.1505e-01  5.4710e-03  7.6485e-03  2.5448e-03  0:05:54 1506
   495  5.5502e-03  1.9115e-03  1.0583e-02  3.1736e-01  5.5476e-03  7.6386e-03  2.5385e-03  0:09:44 1505

  iter  continuity  x-velocity  y-velocity  z-velocity      energy           k       omega     time/iter
   496  5.5763e-03  1.9101e-03  1.0613e-02  3.1798e-01  5.5737e-03  7.6396e-03  2.5421e-03  0:07:47 1504
   497  5.5655e-03  1.9076e-03  1.0641e-02  3.1940e-01  5.5628e-03  7.6461e-03  2.5450e-03  0:06:13 1503
   498  5.5249e-03  1.9055e-03  1.0666e-02  3.2008e-01  5.5221e-03  7.6554e-03  2.5437e-03  0:09:59 1502
   499  5.4479e-03  1.9045e-03  1.0688e-02  3.2094e-01  5.4451e-03  7.6720e-03  2.5345e-03  0:07:59 1501
   500  5.3483e-03  1.9037e-03  1.0704e-02  3.2210e-01  5.3453e-03  7.6969e-03  2.5311e-03  0:06:23 1500
   501  5.2513e-03  1.9021e-03  1.0717e-02  3.2231e-01  5.2482e-03  7.7152e-03  2.5320e-03  0:10:06 1499
   502  5.1455e-03  1.9012e-03  1.0724e-02  3.2299e-01  5.1424e-03  7.7196e-03  2.5278e-03  0:08:04 1498
   503  5.0183e-03  1.9022e-03  1.0727e-02  3.2451e-01  5.0150e-03  7.7258e-03  2.5270e-03  0:06:27 1497
   504  4.8609e-03  1.9036e-03  1.0725e-02  3.2706e-01  4.8575e-03  7.7150e-03  2.5222e-03  0:10:09 1496
   505  4.6879e-03  1.9046e-03  1.0721e-02  3.2884e-01  4.6842e-03  7.7053e-03  2.5162e-03  0:08:07 1495
   506  4.5346e-03  1.9045e-03  1.0717e-02  3.2977e-01  4.5306e-03  7.7048e-03  2.5062e-03  0:06:29 1494

  iter  continuity  x-velocity  y-velocity  z-velocity      energy           k       omega     time/iter
   507  4.3914e-03  1.9031e-03  1.0715e-02  3.3026e-01  4.3872e-03  7.7055e-03  2.4968e-03  0:10:10 1493
   508  4.2595e-03  1.9005e-03  1.0713e-02  3.3090e-01  4.2551e-03  7.7036e-03  2.4940e-03  0:08:07 1492
   509  4.1559e-03  1.8977e-03  1.0710e-02  3.3019e-01  4.1513e-03  7.7042e-03  2.4945e-03  0:06:30 1491
   510  4.0615e-03  1.8942e-03  1.0709e-02  3.2762e-01  4.0567e-03  7.6981e-03  2.4913e-03  0:10:10 1490
   511  3.9938e-03  1.8907e-03  1.0708e-02  3.2609e-01  3.9890e-03  7.6718e-03  2.4925e-03  0:08:07 1489
   512  3.9372e-03  1.8876e-03  1.0705e-02  3.2463e-01  3.9324e-03  7.6704e-03  2.4831e-03  0:06:30 1488
   513  3.9170e-03  1.8851e-03  1.0700e-02  3.2258e-01  3.9121e-03  7.6785e-03  2.4774e-03  0:05:11 1487
   514  3.9156e-03  1.8841e-03  1.0691e-02  3.2068e-01  3.9107e-03  7.6656e-03  2.4753e-03  0:09:06 1486
   515  3.9301e-03  1.8856e-03  1.0680e-02  3.1872e-01  3.9254e-03  7.6553e-03  2.4652e-03  0:07:17 1485
   516  3.9714e-03  1.8899e-03  1.0665e-02  3.1667e-01  3.9667e-03  7.6734e-03  2.4634e-03  0:05:49 1484
   517  4.0336e-03  1.8968e-03  1.0649e-02  3.1545e-01  4.0290e-03  7.6736e-03  2.4552e-03  0:09:36 1483

  iter  continuity  x-velocity  y-velocity  z-velocity      energy           k       omega     time/iter
   518  4.1180e-03  1.9063e-03  1.0628e-02  3.1473e-01  4.1136e-03  7.6628e-03  2.4495e-03  0:07:40 1482
   519  4.2200e-03  1.9176e-03  1.0607e-02  3.1421e-01  4.2156e-03  7.6341e-03  2.4353e-03  0:06:08 1481
   520  4.3391e-03  1.9295e-03  1.0584e-02  3.1404e-01  4.3348e-03  7.6137e-03  2.4193e-03  0:09:50 1480
   521  4.4578e-03  1.9410e-03  1.0563e-02  3.1369e-01  4.4534e-03  7.5900e-03  2.4095e-03  0:07:52 1479
   522  4.5621e-03  1.9518e-03  1.0543e-02  3.1322e-01  4.5578e-03  7.5701e-03  2.4041e-03  0:06:17 1478
   523  4.6560e-03  1.9637e-03  1.0526e-02  3.1226e-01  4.6517e-03  7.5435e-03  2.3964e-03  0:09:57 1477
   524  4.7333e-03  1.9774e-03  1.0512e-02  3.1110e-01  4.7289e-03  7.5547e-03  2.3940e-03  0:07:57 1476
   525  4.7830e-03  1.9922e-03  1.0499e-02  3.1040e-01  4.7786e-03  7.5426e-03  2.3861e-03  0:06:22 1475
   526  4.7995e-03  2.0084e-03  1.0488e-02  3.0997e-01  4.7950e-03  7.5411e-03  2.3815e-03  0:10:00 1474
   527  4.7940e-03  2.0260e-03  1.0476e-02  3.0859e-01  4.7893e-03  7.5343e-03  2.3809e-03  0:08:00 1473
   528  4.7682e-03  2.0445e-03  1.0461e-02  3.0724e-01  4.7635e-03  7.5215e-03  2.3768e-03  0:06:23 1472

  iter  continuity  x-velocity  y-velocity  z-velocity      energy           k       omega     time/iter
   529  4.7321e-03  2.0636e-03  1.0445e-02  3.0533e-01  4.7273e-03  7.5191e-03  2.3749e-03  0:10:01 1471
   530  4.6981e-03  2.0838e-03  1.0425e-02  3.0434e-01  4.6932e-03  7.5102e-03  2.3783e-03  0:08:00 1470
   531  4.6600e-03  2.1042e-03  1.0403e-02  3.0394e-01  4.6550e-03  7.5037e-03  2.3776e-03  0:06:24 1469
   532  4.6171e-03  2.1236e-03  1.0381e-02  3.0410e-01  4.6120e-03  7.4817e-03  2.3729e-03  0:10:01 1468
   533  4.5658e-03  2.1414e-03  1.0360e-02  3.0425e-01  4.5606e-03  7.4639e-03  2.3701e-03  0:08:00 1467
   534  4.5104e-03  2.1576e-03  1.0339e-02  3.0496e-01  4.5050e-03  7.4455e-03  2.3734e-03  0:06:24 1466
   535  4.4502e-03  2.1738e-03  1.0323e-02  3.0506e-01  4.4447e-03  7.4315e-03  2.3772e-03  0:10:00 1465
   536  4.4001e-03  2.1905e-03  1.0311e-02  3.0475e-01  4.3945e-03  7.4181e-03  2.3768e-03  0:08:00 1464
   537  4.3651e-03  2.2073e-03  1.0302e-02  3.0425e-01  4.3593e-03  7.4052e-03  2.3748e-03  0:06:23 1463
   538  4.3478e-03  2.2229e-03  1.0298e-02  3.0517e-01  4.3419e-03  7.4081e-03  2.3679e-03  0:09:59 1462
   539  4.3459e-03  2.2391e-03  1.0298e-02  3.0687e-01  4.3400e-03  7.4077e-03  2.3719e-03  0:07:59 1461

  iter  continuity  x-velocity  y-velocity  z-velocity      energy           k       omega     time/iter
   540  4.3486e-03  2.2536e-03  1.0302e-02  3.1130e-01  4.3426e-03  7.3957e-03  2.3784e-03  0:06:23 1460
   541  4.3623e-03  2.2663e-03  1.0308e-02  3.1741e-01  4.3562e-03  7.3815e-03  2.3882e-03  0:09:58 1459
   542  4.3537e-03  2.2792e-03  1.0316e-02  3.2469e-01  4.3476e-03  7.3772e-03  2.4021e-03  0:07:58 1458
   543  4.3264e-03  2.2918e-03  1.0324e-02  3.3347e-01  4.3203e-03  7.3641e-03  2.4147e-03  0:06:22 1457
   544  4.2762e-03  2.3035e-03  1.0332e-02  3.4498e-01  4.2701e-03  7.3488e-03  2.4258e-03  0:05:05 1456
   545  4.2288e-03  2.3148e-03  1.0342e-02  3.5769e-01  4.2227e-03  7.3367e-03  2.4282e-03  0:08:55 1455
   546  4.1951e-03  2.3250e-03  1.0358e-02  3.6993e-01  4.1889e-03  7.3362e-03  2.4252e-03  0:07:08 1454
   547  4.1583e-03  2.3326e-03  1.0379e-02  3.8504e-01  4.1520e-03  7.3189e-03  2.4269e-03  0:05:42 1453
   548  4.1208e-03  2.3370e-03  1.0403e-02  4.0185e-01  4.1144e-03  7.3066e-03  2.4349e-03  0:09:24 1452
   549  4.1006e-03  2.3396e-03  1.0429e-02  4.2168e-01  4.0941e-03  7.2983e-03  2.4425e-03  0:07:31 1451
   550  4.0810e-03  2.3412e-03  1.0460e-02  4.4354e-01  4.0743e-03  7.2952e-03  2.4428e-03  0:06:00 1450

  iter  continuity  x-velocity  y-velocity  z-velocity      energy           k       omega     time/iter
   551  4.0586e-03  2.3411e-03  1.0496e-02  4.6785e-01  4.0518e-03  7.2878e-03  2.4393e-03  0:09:38 1449
   552  4.0464e-03  2.3386e-03  1.0532e-02  4.9225e-01  4.0394e-03  7.2831e-03  2.4422e-03  0:07:42 1448
   553  4.0361e-03  2.3353e-03  1.0568e-02  5.1597e-01  4.0289e-03  7.2783e-03  2.4473e-03  0:06:09 1447
   554  4.0340e-03  2.3304e-03  1.0607e-02  5.4119e-01  4.0267e-03  7.2679e-03  2.4528e-03  0:09:44 1446
   555  4.0125e-03  2.3233e-03  1.0646e-02  5.6904e-01  4.0052e-03  7.2542e-03  2.4596e-03  0:07:47 1445
   556  3.9774e-03  2.3159e-03  1.0685e-02  5.9598e-01  3.9700e-03  7.2408e-03  2.4649e-03  0:06:14 1444
   557  3.9393e-03  2.3077e-03  1.0726e-02  6.2088e-01  3.9318e-03  7.2460e-03  2.4722e-03  0:09:47 1443
   558  3.8942e-03  2.3004e-03  1.0770e-02  6.4548e-01  3.8868e-03  7.2407e-03  2.4793e-03  0:07:49 1442
   559  3.8328e-03  2.2931e-03  1.0808e-02  6.6966e-01  3.8254e-03  7.2293e-03  2.4815e-03  0:06:15 1441
   560  3.7682e-03  2.2861e-03  1.0846e-02  6.9150e-01  3.7607e-03  7.2146e-03  2.4821e-03  0:09:48 1440
   561  3.7075e-03  2.2787e-03  1.0889e-02  7.1149e-01  3.7001e-03  7.2115e-03  2.4828e-03  0:07:50 1439

  iter  continuity  x-velocity  y-velocity  z-velocity      energy           k       omega     time/iter
   562  3.6588e-03  2.2707e-03  1.0934e-02  7.3045e-01  3.6513e-03  7.2077e-03  2.4819e-03  0:06:16 1438
   563  3.6159e-03  2.2626e-03  1.0979e-02  7.4971e-01  3.6084e-03  7.1988e-03  2.4771e-03  0:09:48 1437
   564  3.5535e-03  2.2550e-03  1.1026e-02  7.6614e-01  3.5460e-03  7.1971e-03  2.4712e-03  0:07:50 1436
   565  3.5025e-03  2.2488e-03  1.1068e-02  7.7725e-01  3.4950e-03  7.1982e-03  2.4713e-03  0:06:16 1435
   566  3.4478e-03  2.2437e-03  1.1106e-02  7.8524e-01  3.4403e-03  7.1815e-03  2.4744e-03  0:05:00 1434
   567  3.3993e-03  2.2391e-03  1.1142e-02  7.9021e-01  3.3919e-03  7.1664e-03  2.4757e-03  0:08:47 1433
   568  3.3439e-03  2.2357e-03  1.1180e-02  7.9123e-01  3.3366e-03  7.1629e-03  2.4756e-03  0:07:01 1432
   569  3.2935e-03  2.2326e-03  1.1223e-02  7.9237e-01  3.2862e-03  7.1674e-03  2.4749e-03  0:05:37 1431
   570  3.2565e-03  2.2279e-03  1.1267e-02  7.9282e-01  3.2494e-03  7.1611e-03  2.4776e-03  0:09:15 1430
   571  3.2285e-03  2.2213e-03  1.1309e-02  7.9438e-01  3.2215e-03  7.1505e-03  2.4765e-03  0:07:24 1429
   572  3.2149e-03  2.2124e-03  1.1350e-02  7.9404e-01  3.2080e-03  7.1399e-03  2.4795e-03  0:05:55 1428

  iter  continuity  x-velocity  y-velocity  z-velocity      energy           k       omega     time/iter
   573  3.2103e-03  2.1999e-03  1.1390e-02  7.8869e-01  3.2034e-03  7.1326e-03  2.4823e-03  0:09:29 1427
   574  3.2145e-03  2.1841e-03  1.1431e-02  7.8348e-01  3.2077e-03  7.1345e-03  2.4907e-03  0:07:35 1426
   575  3.2306e-03  2.1657e-03  1.1468e-02  7.7471e-01  3.2239e-03  7.1404e-03  2.4957e-03  0:06:04 1425
   576  3.2777e-03  2.1484e-03  1.1505e-02  7.6212e-01  3.2711e-03  7.1462e-03  2.4983e-03  0:09:36 1424
   577  3.3392e-03  2.1323e-03  1.1538e-02  7.4918e-01  3.3326e-03  7.1496e-03  2.5033e-03  0:07:40 1423
   578  3.3985e-03  2.1167e-03  1.1570e-02  7.3416e-01  3.3920e-03  7.1499e-03  2.5079e-03  0:06:08 1422
   579  3.4636e-03  2.1014e-03  1.1601e-02  7.1980e-01  3.4572e-03  7.1421e-03  2.5131e-03  0:04:54 1421
   580  3.5523e-03  2.0859e-03  1.1634e-02  7.0321e-01  3.5461e-03  7.1310e-03  2.5232e-03  0:08:39 1420
   581  3.6668e-03  2.0705e-03  1.1667e-02  6.8670e-01  3.6607e-03  7.1269e-03  2.5231e-03  0:06:55 1419
   582  3.7857e-03  2.0581e-03  1.1692e-02  6.6464e-01  3.7798e-03  7.1251e-03  2.5231e-03  0:05:32 1418
   583  3.9311e-03  2.0462e-03  1.1721e-02  6.3813e-01  3.9254e-03  7.1181e-03  2.5274e-03  0:09:09 1417

  iter  continuity  x-velocity  y-velocity  z-velocity      energy           k       omega     time/iter
   584  4.0516e-03  2.0354e-03  1.1754e-02  6.1425e-01  4.0461e-03  7.1041e-03  2.5312e-03  0:07:19 1416
   585  4.1852e-03  2.0259e-03  1.1790e-02  5.8972e-01  4.1798e-03  7.0939e-03  2.5381e-03  0:05:51 1415
   586  4.3727e-03  2.0172e-03  1.1824e-02  5.7183e-01  4.3675e-03  7.0842e-03  2.5410e-03  0:09:23 1414
   587  4.5966e-03  2.0080e-03  1.1851e-02  5.5486e-01  4.5917e-03  7.0717e-03  2.5433e-03  0:07:30 1413
   588  4.7822e-03  1.9984e-03  1.1880e-02  5.4365e-01  4.7774e-03  7.0628e-03  2.5500e-03  0:06:00 1412
   589  4.9500e-03  1.9904e-03  1.1908e-02  5.3761e-01  4.9453e-03  7.0523e-03  2.5568e-03  0:09:30 1411
   590  5.1514e-03  1.9828e-03  1.1937e-02  5.3115e-01  5.1469e-03  7.0332e-03  2.5607e-03  0:07:36 1410
   591  5.4205e-03  1.9735e-03  1.1967e-02  5.2837e-01  5.4162e-03  7.0175e-03  2.5615e-03  0:06:04 1409
   592  5.7841e-03  1.9635e-03  1.1995e-02  5.2666e-01  5.7801e-03  6.9994e-03  2.5643e-03  0:09:33 1408
   593  6.1522e-03  1.9542e-03  1.2021e-02  5.3042e-01  6.1484e-03  6.9776e-03  2.5638e-03  0:07:38 1407
   594  6.5321e-03  1.9450e-03  1.2047e-02  5.3371e-01  6.5286e-03  6.9499e-03  2.5661e-03  0:06:06 1406

  iter  continuity  x-velocity  y-velocity  z-velocity      energy           k       omega     time/iter
   595  6.8934e-03  1.9363e-03  1.2070e-02  5.3781e-01  6.8901e-03  6.9255e-03  2.5684e-03  0:09:34 1405
   596  7.1985e-03  1.9278e-03  1.2092e-02  5.4467e-01  7.1954e-03  6.8903e-03  2.5675e-03  0:07:39 1404
   597  7.4502e-03  1.9196e-03  1.2116e-02  5.5200e-01  7.4472e-03  6.8538e-03  2.5669e-03  0:06:07 1403
   598  7.6391e-03  1.9112e-03  1.2138e-02  5.6332e-01  7.6363e-03  6.8328e-03  2.5689e-03  0:09:33 1402
   599  7.7643e-03  1.9024e-03  1.2159e-02  5.7607e-01  7.7616e-03  6.8106e-03  2.5684e-03  0:07:38 1401
   600  7.8354e-03  1.8924e-03  1.2173e-02  5.8983e-01  7.8327e-03  6.7878e-03  2.5642e-03  0:06:06 1400
   601  7.8547e-03  1.8824e-03  1.2183e-02  5.9492e-01  7.8521e-03  6.7579e-03  2.5668e-03  0:09:33 1399
   602  7.8181e-03  1.8730e-03  1.2192e-02  5.9761e-01  7.8155e-03  6.7261e-03  2.5678e-03  0:07:38 1398
   603  7.7359e-03  1.8642e-03  1.2198e-02  6.0437e-01  7.7333e-03  6.7026e-03  2.5693e-03  0:06:06 1397
   604  7.6111e-03  1.8552e-03  1.2198e-02  6.1060e-01  7.6084e-03  6.6657e-03  2.5682e-03  0:09:32 1396
   605  7.4624e-03  1.8459e-03  1.2198e-02  6.1818e-01  7.4597e-03  6.6310e-03  2.5682e-03  0:07:37 1395

  iter  continuity  x-velocity  y-velocity  z-velocity      energy           k       omega     time/iter
   606  7.2985e-03  1.8370e-03  1.2195e-02  6.2565e-01  7.2958e-03  6.6017e-03  2.5649e-03  0:06:05 1394
   607  7.1309e-03  1.8272e-03  1.2191e-02  6.3526e-01  7.1280e-03  6.5796e-03  2.5642e-03  0:09:31 1393
   608  6.9675e-03  1.8169e-03  1.2185e-02  6.4283e-01  6.9646e-03  6.5502e-03  2.5619e-03  0:07:36 1392
   609  6.8140e-03  1.8056e-03  1.2179e-02  6.5037e-01  6.8111e-03  6.5215e-03  2.5634e-03  0:06:05 1391
   610  6.6714e-03  1.7942e-03  1.2172e-02  6.5737e-01  6.6685e-03  6.4892e-03  2.5632e-03  0:09:30 1390
   611  6.5519e-03  1.7835e-03  1.2164e-02  6.6168e-01  6.5490e-03  6.4639e-03  2.5625e-03  0:07:35 1389
   612  6.4648e-03  1.7751e-03  1.2156e-02  6.6311e-01  6.4619e-03  6.4444e-03  2.5639e-03  0:06:04 1388
   613  6.3890e-03  1.7674e-03  1.2149e-02  6.6269e-01  6.3862e-03  6.4209e-03  2.5678e-03  0:09:28 1387
   614  6.3388e-03  1.7600e-03  1.2141e-02  6.6137e-01  6.3361e-03  6.4036e-03  2.5666e-03  0:07:34 1386
   615  6.3020e-03  1.7534e-03  1.2131e-02  6.6139e-01  6.2994e-03  6.3893e-03  2.5674e-03  0:06:03 1385
   616  6.2547e-03  1.7478e-03  1.2121e-02  6.6168e-01  6.2522e-03  6.3755e-03  2.5642e-03  0:04:50 1384

  iter  continuity  x-velocity  y-velocity  z-velocity      energy           k       omega     time/iter
   617  6.1900e-03  1.7432e-03  1.2110e-02  6.6196e-01  6.1876e-03  6.3596e-03  2.5648e-03  0:08:29 1383
   618  6.1052e-03  1.7395e-03  1.2094e-02  6.6179e-01  6.1027e-03  6.3407e-03  2.5627e-03  0:06:47 1382
   619  6.0079e-03  1.7369e-03  1.2077e-02  6.5829e-01  6.0055e-03  6.3273e-03  2.5607e-03  0:05:25 1381
   620  5.9065e-03  1.7354e-03  1.2061e-02  6.5433e-01  5.9040e-03  6.3155e-03  2.5646e-03  0:08:56 1380
   621  5.7980e-03  1.7348e-03  1.2045e-02  6.5028e-01  5.7954e-03  6.3019e-03  2.5662e-03  0:07:08 1379
   622  5.6718e-03  1.7352e-03  1.2029e-02  6.4684e-01  5.6691e-03  6.2876e-03  2.5631e-03  0:05:42 1378
   623  5.5258e-03  1.7371e-03  1.2013e-02  6.4513e-01  5.5230e-03  6.2761e-03  2.5633e-03  0:09:09 1377
   624  5.3474e-03  1.7395e-03  1.1997e-02  6.4209e-01  5.3444e-03  6.2695e-03  2.5648e-03  0:07:19 1376
   625  5.1554e-03  1.7423e-03  1.1981e-02  6.4166e-01  5.1521e-03  6.2632e-03  2.5581e-03  0:05:51 1375
   626  4.9566e-03  1.7442e-03  1.1967e-02  6.4437e-01  4.9532e-03  6.2638e-03  2.5565e-03  0:04:41 1374
[...]
  1838  1.0159e-03  2.8065e-04  1.5982e-03  1.2148e+00  1.0155e-03  2.0455e-03  8.5772e-04  0:00:55  162
  1839  1.0266e-03  2.8130e-04  1.6025e-03  1.2260e+00  1.0262e-03  2.0455e-03  8.6096e-04  0:00:44  161
  1840  1.0371e-03  2.8196e-04  1.6069e-03  1.2371e+00  1.0367e-03  2.0428e-03  8.6260e-04  0:00:35  160
  1841  1.0472e-03  2.8254e-04  1.6115e-03  1.2481e+00  1.0468e-03  2.0360e-03  8.6112e-04  0:00:28  159
  1842  1.0570e-03  2.8298e-04  1.6154e-03  1.2607e+00  1.0566e-03  2.0248e-03  8.6060e-04  0:00:54  158
  1843  1.0666e-03  2.8336e-04  1.6185e-03  1.2741e+00  1.0662e-03  2.0166e-03  8.6323e-04  0:00:43  157
  1844  1.0761e-03  2.8358e-04  1.6206e-03  1.2840e+00  1.0757e-03  2.0149e-03  8.6718e-04  0:00:34  156
  1845  1.0856e-03  2.8383e-04  1.6230e-03  1.2944e+00  1.0852e-03  2.0147e-03  8.6959e-04  0:00:27  155
  1846  1.0954e-03  2.8417e-04  1.6255e-03  1.3008e+00  1.0950e-03  2.0141e-03  8.7031e-04  0:00:52  154
  1847  1.1039e-03  2.8466e-04  1.6285e-03  1.3109e+00  1.1034e-03  2.0112e-03  8.7117e-04  0:00:41  153
  1848  1.1103e-03  2.8519e-04  1.6323e-03  1.3223e+00  1.1099e-03  2.0053e-03  8.7096e-04  0:00:33  152

  iter  continuity  x-velocity  y-velocity  z-velocity      energy           k       omega     time/iter
  1849  1.1150e-03  2.8576e-04  1.6370e-03  1.3246e+00  1.1146e-03  2.0000e-03  8.7304e-04  0:00:26  151
  1850  1.1178e-03  2.8644e-04  1.6428e-03  1.3257e+00  1.1173e-03  1.9949e-03  8.7729e-04  0:00:51  150
  1851  1.1180e-03  2.8709e-04  1.6497e-03  1.3278e+00  1.1176e-03  1.9932e-03  8.8060e-04  0:00:40  149
  1852  1.1166e-03  2.8783e-04  1.6573e-03  1.3328e+00  1.1162e-03  1.9912e-03  8.7894e-04  0:00:32  148
  1853  1.1133e-03  2.8864e-04  1.6658e-03  1.3385e+00  1.1129e-03  1.9898e-03  8.7997e-04  0:00:25  147
  1854  1.1082e-03  2.8950e-04  1.6748e-03  1.3438e+00  1.1078e-03  1.9899e-03  8.8278e-04  0:00:49  146
  1855  1.1015e-03  2.9043e-04  1.6834e-03  1.3390e+00  1.1011e-03  1.9904e-03  8.8328e-04  0:00:39  145
  1856  1.0930e-03  2.9143e-04  1.6917e-03  1.3179e+00  1.0925e-03  1.9926e-03  8.8765e-04  0:00:31  144
  1857  1.0829e-03  2.9246e-04  1.6992e-03  1.3110e+00  1.0825e-03  1.9904e-03  8.9255e-04  0:00:25  143
  1858  1.0717e-03  2.9346e-04  1.7056e-03  1.3010e+00  1.0713e-03  1.9883e-03  8.9275e-04  0:00:48  142
  1859  1.0598e-03  2.9443e-04  1.7109e-03  1.2913e+00  1.0594e-03  1.9870e-03  8.9532e-04  0:00:38  141

  iter  continuity  x-velocity  y-velocity  z-velocity      energy           k       omega     time/iter
  1860  1.0474e-03  2.9538e-04  1.7144e-03  1.2749e+00  1.0470e-03  1.9863e-03  8.9410e-04  0:00:30  140
  1861  1.0340e-03  2.9635e-04  1.7171e-03  1.2645e+00  1.0337e-03  1.9872e-03  8.9303e-04  0:00:24  139
  1862  1.0197e-03  2.9734e-04  1.7193e-03  1.2446e+00  1.0193e-03  1.9879e-03  8.9403e-04  0:00:47  138
  1863  1.0046e-03  2.9838e-04  1.7202e-03  1.2311e+00  1.0042e-03  1.9881e-03  8.9409e-04  0:00:37  137
  1864  9.8910e-04  2.9941e-04  1.7204e-03  1.2177e+00  9.8873e-04  1.9835e-03  8.9637e-04  0:00:29  136
  1865  9.7312e-04  3.0031e-04  1.7202e-03  1.1971e+00  9.7276e-04  1.9836e-03  8.9965e-04  0:00:50  135
  1866  9.5583e-04  3.0105e-04  1.7196e-03  1.1652e+00  9.5548e-04  1.9839e-03  9.0279e-04  0:00:40  134
  1867  9.3955e-04  3.0187e-04  1.7187e-03  1.1349e+00  9.3921e-04  1.9843e-03  9.0685e-04  0:00:32  133
  1868  9.2393e-04  3.0278e-04  1.7175e-03  1.1061e+00  9.2361e-04  1.9881e-03  9.1197e-04  0:00:25  132
  1869  9.0900e-04  3.0368e-04  1.7168e-03  1.0820e+00  9.0869e-04  1.9876e-03  9.1394e-04  0:00:46  131
  1870  8.9621e-04  3.0451e-04  1.7169e-03  1.0600e+00  8.9591e-04  1.9915e-03  9.1768e-04  0:00:37  130

  iter  continuity  x-velocity  y-velocity  z-velocity      energy           k       omega     time/iter
  1871  8.8374e-04  3.0519e-04  1.7177e-03  1.0346e+00  8.8344e-04  1.9916e-03  9.2139e-04  0:00:29  129
  1872  8.7467e-04  3.0592e-04  1.7215e-03  1.0167e+00  8.7438e-04  1.9972e-03  9.2443e-04  0:00:23  128
  1873  8.6848e-04  3.0675e-04  1.7285e-03  1.0045e+00  8.6819e-04  2.0066e-03  9.2685e-04  0:00:44  127
  1874  8.5798e-04  3.0763e-04  1.7369e-03  9.9419e-01  8.5770e-04  2.0136e-03  9.2883e-04  0:00:35  126
  1875  8.5129e-04  3.0818e-04  1.7457e-03  9.8373e-01  8.5102e-04  2.0177e-03  9.2867e-04  0:00:28  125
  1876  8.4436e-04  3.0855e-04  1.7547e-03  9.7810e-01  8.4409e-04  2.0174e-03  9.3171e-04  0:00:22  124
  1877  8.4276e-04  3.0877e-04  1.7639e-03  9.7090e-01  8.4250e-04  2.0199e-03  9.3345e-04  0:00:42  123
  1878  8.5000e-04  3.0889e-04  1.7725e-03  9.6186e-01  8.4975e-04  2.0219e-03  9.3052e-04  0:00:33  122
  1879  8.6312e-04  3.0900e-04  1.7806e-03  9.4395e-01  8.6288e-04  2.0253e-03  9.2842e-04  0:00:26  121
  1880  8.8268e-04  3.0922e-04  1.7883e-03  9.2729e-01  8.8244e-04  2.0261e-03  9.2970e-04  0:00:21  120
  1881  9.0863e-04  3.0964e-04  1.7948e-03  9.2431e-01  9.0840e-04  2.0279e-03  9.3100e-04  0:00:40  119

  iter  continuity  x-velocity  y-velocity  z-velocity      energy           k       omega     time/iter
  1882  9.3867e-04  3.1023e-04  1.7988e-03  9.3380e-01  9.3843e-04  2.0304e-03  9.3600e-04  0:00:32  118
  1883  9.7465e-04  3.1099e-04  1.8016e-03  9.5105e-01  9.7441e-04  2.0344e-03  9.4087e-04  0:00:25  117
  1884  1.0149e-03  3.1191e-04  1.8041e-03  9.7369e-01  1.0146e-03  2.0424e-03  9.4532e-04  0:00:20  116
  1885  1.0581e-03  3.1296e-04  1.8057e-03  9.9886e-01  1.0579e-03  2.0470e-03  9.4825e-04  0:00:39  115
  1886  1.1028e-03  3.1404e-04  1.8059e-03  1.0284e+00  1.1026e-03  2.0515e-03  9.5357e-04  0:00:31  114
  1887  1.1476e-03  3.1478e-04  1.8047e-03  1.0508e+00  1.1473e-03  2.0546e-03  9.5878e-04  0:00:25  113
  1888  1.1941e-03  3.1583e-04  1.8024e-03  1.0691e+00  1.1938e-03  2.0556e-03  9.6534e-04  0:00:19  112
  1889  1.2408e-03  3.1704e-04  1.7994e-03  1.1068e+00  1.2405e-03  2.0582e-03  9.6933e-04  0:00:38  111
  1890  1.2851e-03  3.1828e-04  1.7966e-03  1.1485e+00  1.2848e-03  2.0616e-03  9.7096e-04  0:00:30  110
  1891  1.3286e-03  3.1958e-04  1.7950e-03  1.1902e+00  1.3283e-03  2.0644e-03  9.7297e-04  0:00:24  109
  1892  1.3715e-03  3.2084e-04  1.7946e-03  1.2309e+00  1.3711e-03  2.0647e-03  9.7514e-04  0:00:19  108

  iter  continuity  x-velocity  y-velocity  z-velocity      energy           k       omega     time/iter
  1893  1.4131e-03  3.2207e-04  1.7939e-03  1.2750e+00  1.4127e-03  2.0650e-03  9.7725e-04  0:00:36  107
  1894  1.4530e-03  3.2326e-04  1.7931e-03  1.3183e+00  1.4526e-03  2.0677e-03  9.7988e-04  0:00:29  106
  1895  1.4914e-03  3.2449e-04  1.7926e-03  1.3552e+00  1.4910e-03  2.0675e-03  9.8187e-04  0:00:23  105
  1896  1.5271e-03  3.2559e-04  1.7928e-03  1.3935e+00  1.5267e-03  2.0729e-03  9.7914e-04  0:00:18  104
  1897  1.5639e-03  3.2652e-04  1.7937e-03  1.4315e+00  1.5634e-03  2.0804e-03  9.8079e-04  0:00:35  103
  1898  1.6005e-03  3.2740e-04  1.7951e-03  1.4769e+00  1.6001e-03  2.0828e-03  9.7898e-04  0:00:28  102
  1899  1.6347e-03  3.2824e-04  1.7969e-03  1.5244e+00  1.6342e-03  2.0854e-03  9.7950e-04  0:00:22  101
  1900  1.6652e-03  3.2904e-04  1.7987e-03  1.5698e+00  1.6647e-03  2.0862e-03  9.7949e-04  0:00:17  100
  1901  1.6925e-03  3.2969e-04  1.8001e-03  1.6156e+00  1.6920e-03  2.0907e-03  9.7997e-04  0:00:14   99
  1902  1.7174e-03  3.3021e-04  1.8010e-03  1.6592e+00  1.7169e-03  2.0933e-03  9.8000e-04  0:00:30   98
  1903  1.7393e-03  3.3076e-04  1.8018e-03  1.6949e+00  1.7387e-03  2.0987e-03  9.7846e-04  0:00:24   97

  iter  continuity  x-velocity  y-velocity  z-velocity      energy           k       omega     time/iter
  1904  1.7571e-03  3.3148e-04  1.8023e-03  1.7251e+00  1.7565e-03  2.0986e-03  9.7687e-04  0:00:19   96
  1905  1.7701e-03  3.3216e-04  1.8018e-03  1.7469e+00  1.7695e-03  2.0974e-03  9.7620e-04  0:00:15   95
  1906  1.7784e-03  3.3263e-04  1.8014e-03  1.7631e+00  1.7778e-03  2.0983e-03  9.7857e-04  0:00:31   94
  1907  1.7830e-03  3.3343e-04  1.8012e-03  1.7727e+00  1.7824e-03  2.0988e-03  9.8164e-04  0:00:24   93
  1908  1.7839e-03  3.3424e-04  1.8008e-03  1.7768e+00  1.7833e-03  2.0949e-03  9.8062e-04  0:00:19   92
  1909  1.7818e-03  3.3477e-04  1.8002e-03  1.7787e+00  1.7812e-03  2.0942e-03  9.8314e-04  0:00:15   91
  1910  1.7774e-03  3.3528e-04  1.7994e-03  1.7817e+00  1.7767e-03  2.0928e-03  9.8299e-04  0:00:12   90
  1911  1.7713e-03  3.3579e-04  1.7979e-03  1.7836e+00  1.7706e-03  2.0872e-03  9.8177e-04  0:00:27   89
  1912  1.7637e-03  3.3624e-04  1.7960e-03  1.7855e+00  1.7630e-03  2.0871e-03  9.8043e-04  0:00:22   88
  1913  1.7548e-03  3.3672e-04  1.7937e-03  1.7900e+00  1.7541e-03  2.0876e-03  9.7986e-04  0:00:17   87
  1914  1.7446e-03  3.3727e-04  1.7912e-03  1.8012e+00  1.7439e-03  2.0837e-03  9.7831e-04  0:00:14   86

  iter  continuity  x-velocity  y-velocity  z-velocity      energy           k       omega     time/iter
  1915  1.7336e-03  3.3774e-04  1.7885e-03  1.8236e+00  1.7329e-03  2.0805e-03  9.7328e-04  0:00:28   85
  1916  1.7219e-03  3.3811e-04  1.7859e-03  1.8359e+00  1.7212e-03  2.0815e-03  9.6886e-04  0:00:22   84
  1917  1.7086e-03  3.3842e-04  1.7836e-03  1.8244e+00  1.7079e-03  2.0858e-03  9.6724e-04  0:00:17   83
  1918  1.6950e-03  3.3875e-04  1.7813e-03  1.8108e+00  1.6942e-03  2.0891e-03  9.6531e-04  0:00:14   82
  1919  1.6809e-03  3.3899e-04  1.7790e-03  1.8016e+00  1.6801e-03  2.0898e-03  9.6837e-04  0:00:11   81
  1920  1.6655e-03  3.3908e-04  1.7769e-03  1.7917e+00  1.6647e-03  2.0909e-03  9.6793e-04  0:00:25   80
  1921  1.6483e-03  3.3914e-04  1.7746e-03  1.7865e+00  1.6476e-03  2.0912e-03  9.6718e-04  0:00:19   79
  1922  1.6297e-03  3.3916e-04  1.7728e-03  1.7830e+00  1.6290e-03  2.0892e-03  9.6752e-04  0:00:15   78
  1923  1.6092e-03  3.3915e-04  1.7722e-03  1.7870e+00  1.6085e-03  2.0871e-03  9.6788e-04  0:00:12   77
  1924  1.5835e-03  3.3904e-04  1.7728e-03  1.7943e+00  1.5828e-03  2.0881e-03  9.6825e-04  0:00:10   76
  1925  1.5580e-03  3.3914e-04  1.7751e-03  1.7897e+00  1.5573e-03  2.0875e-03  9.6701e-04  0:00:23   75

  iter  continuity  x-velocity  y-velocity  z-velocity      energy           k       omega     time/iter
  1926  1.5297e-03  3.3956e-04  1.7796e-03  1.7722e+00  1.5290e-03  2.0854e-03  9.6820e-04  0:00:18   74
  1927  1.4965e-03  3.4018e-04  1.7854e-03  1.7435e+00  1.4958e-03  2.0818e-03  9.6769e-04  0:00:14   73
  1928  1.4623e-03  3.4105e-04  1.7924e-03  1.7240e+00  1.4617e-03  2.0769e-03  9.6576e-04  0:00:11   72
  1929  1.4267e-03  3.4203e-04  1.8003e-03  1.7071e+00  1.4261e-03  2.0738e-03  9.6366e-04  0:00:23   71
  1930  1.3895e-03  3.4312e-04  1.8080e-03  1.7014e+00  1.3889e-03  2.0681e-03  9.6079e-04  0:00:18   70
  1931  1.3512e-03  3.4429e-04  1.8150e-03  1.6979e+00  1.3506e-03  2.0598e-03  9.6052e-04  0:00:14   69
  1932  1.3118e-03  3.4556e-04  1.8207e-03  1.6927e+00  1.3113e-03  2.0496e-03  9.5308e-04  0:00:11   68
  1933  1.2724e-03  3.4695e-04  1.8247e-03  1.6756e+00  1.2719e-03  2.0498e-03  9.5604e-04  0:00:09   67
  1934  1.2335e-03  3.4842e-04  1.8271e-03  1.6484e+00  1.2331e-03  2.0499e-03  9.5572e-04  0:00:20   66
  1935  1.1947e-03  3.4995e-04  1.8281e-03  1.6129e+00  1.1943e-03  2.0543e-03  9.5669e-04  0:00:16   65
  1936  1.1553e-03  3.5138e-04  1.8280e-03  1.5761e+00  1.1549e-03  2.0566e-03  9.5393e-04  0:00:13   64

  iter  continuity  x-velocity  y-velocity  z-velocity      energy           k       omega     time/iter
  1937  1.1185e-03  3.5269e-04  1.8269e-03  1.5489e+00  1.1181e-03  2.0593e-03  9.5469e-04  0:00:10   63
  1938  1.0854e-03  3.5371e-04  1.8252e-03  1.5462e+00  1.0851e-03  2.0647e-03  9.5257e-04  0:00:20   62
  1939  1.0544e-03  3.5450e-04  1.8233e-03  1.5708e+00  1.0541e-03  2.0702e-03  9.5174e-04  0:00:16   61
  1940  1.0270e-03  3.5500e-04  1.8205e-03  1.6031e+00  1.0267e-03  2.0726e-03  9.5236e-04  0:00:12   60
  1941  1.0034e-03  3.5523e-04  1.8173e-03  1.6382e+00  1.0032e-03  2.0762e-03  9.5441e-04  0:00:10   59
  1942  9.8497e-04  3.5536e-04  1.8135e-03  1.6702e+00  9.8478e-04  2.0793e-03  9.5567e-04  0:00:08   58
  1943  9.7118e-04  3.5547e-04  1.8102e-03  1.6792e+00  9.7101e-04  2.0794e-03  9.5702e-04  0:00:17   57
  1944  9.6455e-04  3.5531e-04  1.8083e-03  1.6662e+00  9.6441e-04  2.0760e-03  9.6129e-04  0:00:14   56
  1945  9.5895e-04  3.5516e-04  1.8087e-03  1.6597e+00  9.5883e-04  2.0696e-03  9.6100e-04  0:00:11   55
  1946  9.4215e-04  3.5510e-04  1.8111e-03  1.6598e+00  9.4204e-04  2.0662e-03  9.5641e-04  0:00:08   54
  1947  9.3134e-04  3.5513e-04  1.8152e-03  1.6600e+00  9.3123e-04  2.0617e-03  9.5565e-04  0:00:17   53

  iter  continuity  x-velocity  y-velocity  z-velocity      energy           k       omega     time/iter
  1948  9.2671e-04  3.5523e-04  1.8205e-03  1.6389e+00  9.2660e-04  2.0605e-03  9.5376e-04  0:00:14   52
  1949  9.2680e-04  3.5540e-04  1.8258e-03  1.6032e+00  9.2670e-04  2.0562e-03  9.5059e-04  0:00:11   51
  1950  9.3043e-04  3.5559e-04  1.8312e-03  1.5648e+00  9.3032e-04  2.0573e-03  9.5166e-04  0:00:08   50
  1951  9.3388e-04  3.5567e-04  1.8364e-03  1.5295e+00  9.3377e-04  2.0538e-03  9.5117e-04  0:00:07   49
  1952  9.3983e-04  3.5573e-04  1.8407e-03  1.4993e+00  9.3970e-04  2.0527e-03  9.5184e-04  0:00:15   48
  1953  9.5036e-04  3.5569e-04  1.8433e-03  1.4811e+00  9.5022e-04  2.0529e-03  9.5227e-04  0:00:12   47
  1954  9.6590e-04  3.5551e-04  1.8433e-03  1.4806e+00  9.6574e-04  2.0538e-03  9.5458e-04  0:00:09   46
  1955  9.8488e-04  3.5512e-04  1.8414e-03  1.4940e+00  9.8471e-04  2.0570e-03  9.5223e-04  0:00:07   45
  1956  1.0059e-03  3.5453e-04  1.8384e-03  1.5156e+00  1.0057e-03  2.0568e-03  9.4892e-04  0:00:06   44
  1957  1.0284e-03  3.5370e-04  1.8343e-03  1.5227e+00  1.0282e-03  2.0550e-03  9.5138e-04  0:00:13   43
  1958  1.0533e-03  3.5269e-04  1.8289e-03  1.5195e+00  1.0531e-03  2.0528e-03  9.5049e-04  0:00:10   42

  iter  continuity  x-velocity  y-velocity  z-velocity      energy           k       omega     time/iter
  1959  1.0798e-03  3.5185e-04  1.8225e-03  1.5156e+00  1.0796e-03  2.0498e-03  9.5032e-04  0:00:08   41
  1960  1.1076e-03  3.5074e-04  1.8163e-03  1.5083e+00  1.1073e-03  2.0467e-03  9.5057e-04  0:00:06   40
  1961  1.1374e-03  3.4928e-04  1.8113e-03  1.5101e+00  1.1371e-03  2.0421e-03  9.4983e-04  0:00:13   39
  1962  1.1669e-03  3.4768e-04  1.8072e-03  1.5209e+00  1.1666e-03  2.0395e-03  9.5001e-04  0:00:10   38
  1963  1.1957e-03  3.4598e-04  1.8034e-03  1.5300e+00  1.1954e-03  2.0412e-03  9.4831e-04  0:00:08   37
  1964  1.2259e-03  3.4422e-04  1.8002e-03  1.5398e+00  1.2255e-03  2.0416e-03  9.4641e-04  0:00:06   36
  1965  1.2547e-03  3.4246e-04  1.7978e-03  1.5343e+00  1.2543e-03  2.0414e-03  9.4568e-04  0:00:05   35
  1966  1.2816e-03  3.4075e-04  1.7959e-03  1.5207e+00  1.2812e-03  2.0383e-03  9.4739e-04  0:00:10   34
  1967  1.3068e-03  3.3912e-04  1.7941e-03  1.5133e+00  1.3064e-03  2.0328e-03  9.4579e-04  0:00:08   33
  1968  1.3311e-03  3.3753e-04  1.7923e-03  1.5052e+00  1.3306e-03  2.0271e-03  9.4423e-04  0:00:06   32
  1969  1.3553e-03  3.3593e-04  1.7902e-03  1.4913e+00  1.3548e-03  2.0234e-03  9.4554e-04  0:00:05   31

  iter  continuity  x-velocity  y-velocity  z-velocity      energy           k       omega     time/iter
  1970  1.3799e-03  3.3426e-04  1.7877e-03  1.4775e+00  1.3794e-03  2.0220e-03  9.4186e-04  0:00:04   30
  1971  1.4050e-03  3.3253e-04  1.7847e-03  1.4696e+00  1.4045e-03  2.0215e-03  9.3959e-04  0:00:09   29
  1972  1.4305e-03  3.3066e-04  1.7809e-03  1.4620e+00  1.4299e-03  2.0202e-03  9.3523e-04  0:00:07   28
  1973  1.4576e-03  3.2869e-04  1.7764e-03  1.4538e+00  1.4571e-03  2.0170e-03  9.3185e-04  0:00:05   27
  1974  1.4860e-03  3.2664e-04  1.7717e-03  1.4461e+00  1.4855e-03  2.0141e-03  9.2929e-04  0:00:04   26
  1975  1.5156e-03  3.2454e-04  1.7658e-03  1.4410e+00  1.5151e-03  2.0097e-03  9.2612e-04  0:00:08   25
  1976  1.5467e-03  3.2243e-04  1.7590e-03  1.4413e+00  1.5461e-03  2.0051e-03  9.2176e-04  0:00:06   24
  1977  1.5786e-03  3.2004e-04  1.7520e-03  1.4386e+00  1.5779e-03  1.9991e-03  9.1871e-04  0:00:05   23
  1978  1.6124e-03  3.1736e-04  1.7451e-03  1.4233e+00  1.6118e-03  1.9926e-03  9.1638e-04  0:00:04   22
  1979  1.6477e-03  3.1503e-04  1.7390e-03  1.4144e+00  1.6471e-03  1.9876e-03  9.1331e-04  0:00:03   21
  1980  1.6829e-03  3.1298e-04  1.7341e-03  1.4049e+00  1.6823e-03  1.9836e-03  9.1058e-04  0:00:06   20

  iter  continuity  x-velocity  y-velocity  z-velocity      energy           k       omega     time/iter
  1981  1.7174e-03  3.1109e-04  1.7304e-03  1.4052e+00  1.7168e-03  1.9789e-03  9.0641e-04  0:00:05   19
  1982  1.7509e-03  3.0894e-04  1.7276e-03  1.4120e+00  1.7502e-03  1.9760e-03  9.0659e-04  0:00:04   18
  1983  1.7831e-03  3.0697e-04  1.7267e-03  1.4183e+00  1.7824e-03  1.9721e-03  9.0321e-04  0:00:03   17
  1984  1.8129e-03  3.0529e-04  1.7264e-03  1.4270e+00  1.8122e-03  1.9678e-03  8.9844e-04  0:00:05   16
  1985  1.8397e-03  3.0382e-04  1.7260e-03  1.4350e+00  1.8390e-03  1.9633e-03  8.9689e-04  0:00:04   15
  1986  1.8636e-03  3.0255e-04  1.7253e-03  1.4274e+00  1.8629e-03  1.9583e-03  8.9560e-04  0:00:03   14
  1987  1.8837e-03  3.0152e-04  1.7243e-03  1.4221e+00  1.8830e-03  1.9510e-03  8.9135e-04  0:00:02   13
  1988  1.8987e-03  3.0073e-04  1.7228e-03  1.4280e+00  1.8980e-03  1.9440e-03  8.8724e-04  0:00:02   12
  1989  1.9093e-03  3.0012e-04  1.7204e-03  1.4424e+00  1.9086e-03  1.9366e-03  8.8594e-04  0:00:03   11
  1990  1.9167e-03  2.9966e-04  1.7163e-03  1.4618e+00  1.9160e-03  1.9308e-03  8.8262e-04  0:00:02   10
  1991  1.9218e-03  2.9918e-04  1.7116e-03  1.4707e+00  1.9210e-03  1.9270e-03  8.7738e-04  0:00:02    9

  iter  continuity  x-velocity  y-velocity  z-velocity      energy           k       omega     time/iter
  1992  1.9235e-03  2.9867e-04  1.7066e-03  1.4814e+00  1.9228e-03  1.9234e-03  8.7499e-04  0:00:01    8
  1993  1.9225e-03  2.9809e-04  1.7012e-03  1.5001e+00  1.9217e-03  1.9202e-03  8.7292e-04  0:00:01    7
  1994  1.9207e-03  2.9742e-04  1.6955e-03  1.5089e+00  1.9199e-03  1.9147e-03  8.7041e-04  0:00:02    6
  1995  1.9169e-03  2.9664e-04  1.6902e-03  1.5180e+00  1.9161e-03  1.9076e-03  8.6803e-04  0:00:01    5
  1996  1.9113e-03  2.9554e-04  1.6845e-03  1.5172e+00  1.9105e-03  1.9020e-03  8.6662e-04  0:00:01    4
  1997  1.9039e-03  2.9447e-04  1.6780e-03  1.5126e+00  1.9031e-03  1.8959e-03  8.6447e-04  0:00:01    3
  1998  1.8964e-03  2.9338e-04  1.6716e-03  1.5102e+00  1.8956e-03  1.8910e-03  8.6329e-04  0:00:01    2
  1999  1.8908e-03  2.9235e-04  1.6661e-03  1.5084e+00  1.8900e-03  1.8853e-03  8.6011e-04  0:00:00    1
  2000  1.8828e-03  2.9126e-04  1.6610e-03  1.4905e+00  1.8820e-03  1.8782e-03  8.5869e-04  0:00:00    0

> 
adjoint/                parallel/               server/
define/                 parametric-study/       solve/
display/                plot/                   surface/
exit                    preferences/            turbo-workflow/
file/                   print-license-usage     views/
mesh/                   report/

> /file/write-case-data project1
Fast-loading "C:\PROGRA~1\ANSYSI~1\v231\fluent\fluent23.1.0\\addons\afd\lib\hdfio.bin"
Done.

Writing to Engs-30669:"C:\Users\kebl7595\Desktop\CFD\Runs\Flap\9 degrees\project1.cas.h5" in NODE0 mode and compression level 1 ...
       24072 cells,     1 zone  ...
       80918 faces,     7 zones ...
       33000 nodes,     1 zone  ...
  Done.
Done.

Writing to Engs-30669:"C:\Users\kebl7595\Desktop\CFD\Runs\Flap\9 degrees\project1.dat.h5" in NODE0 mode and compression level 1 ...
  Writing results.
Done.

> /file/export/ascii "./surface.dat" wing () no pressure mach-number quit no

Writing "./surface.dat"...

Writing information to ascii file ...
Done.


> /report/forces/wall-forces y -0.15643 -0.98769 0 y "Lift"

> /report/forces/wall-forces y 0.98769 -0.15643 0 y "Drag"

> ;/exit

> /exit y

Posting ANSYS Product Improvement Program performance data 
Done.
Auto-Transcript Stop Time:  10:24:40, 22 May 2024 GMT Daylight Time 
Total Transcript Time: 15 Minute 59 Second.
