Auto-Transcript Start Time:  13:50:54, 20 May 2024 GMT Daylight Time 
Current Directory: "C:\Users\kebl7595\Desktop\CFD\Runs\Actual Data\0 degree coarse mesh"

              Welcome to ANSYS Fluent 2023 R1

              Copyright 1987-2023 ANSYS, Inc. All Rights Reserved.
              Unauthorized use, distribution or duplication is prohibited.
              This product is subject to U.S. laws governing export and re-export.
              For full Legal Notice, see documentation.

Build Time: Nov 28 2022 09:52:02 EST  Build Id: 10208  
 
Connected License Server List:	1055@ansyslic.eng.ox.ac.uk

*********************************************
Info: Your license enables 4-way parallel execution.
For faster simulations, please start the application with the appropriate parallel options.
*********************************************


     --------------------------------------------------------------
     This is an academic version of ANSYS FLUENT. Usage of this product
     license is limited to the terms and conditions specified in your ANSYS
     license form, additional terms section.
     --------------------------------------------------------------
Host spawning Node 0 on machine "Engs-30669" (win64).

------------------------------------------------------------------------------------
ID    Hostname    Core  O.S.         PID    Vendor                                 
------------------------------------------------------------------------------------
n0    Engs-30669  1/32  Windows-x64  16192  13th Gen Intel(R) Core(TM) i9-13900    
host  Engs-30669        Windows-x64  41696  13th Gen Intel(R) Core(TM) i9-13900    

MPI Option Selected: intel
------------------------------------------------------------------------------------

Cleanup script file is C:\\Users\\kebl7595\\Desktop\\CFD\\Runs\\Actual Data\\0 degree coarse mesh\\cleanup-fluent-Engs-30669-41696.bat
QA Service Message :
QA Services Agreement Enabled. This application is included in the scope of an ANSYS QA Services Agreement.
Posting ANSYS Product Improvement Program startup data
Done.

Reading journal file C:/Users/kebl7595/Desktop/CFD/Runs/Actual Data/0 degree coarse mesh/project1.jou...

> /file/set-batch-options no no no 

> 
define/                 parametric-study/       solve/
display/                plot/                   surface/
exit                    preferences/            switch-to-meshing-mode
file/                   print-license-usage     turbo-workflow/
mesh/                   report/                 views/
parallel/               server/

> /file/import/cgns/mesh  "./project1.cgns"
Engs-30669 has other FLUENT parallel processes running.                       Process affinity not being set.

Importing "./project1.cgns"

Opening library "C:\\PROGRA~1\\ANSYSI~1\\v231\\fluent\\fluent23.1.0\\vki\\win64\\devtools4.4.6.dll"... done.

Read     9804 nodes
    7050 hexahedral cells, zone  1
    5300 quadrilateral wall faces, zone  2.
   18293 quadrilateral interior faces, zone  3.
     204 quadrilateral interface faces, zone  4.
       6 quadrilateral wall faces, zone  5.

Building...
     mesh
     materials,
     interface,
     domains,
     zones,
	default_exterior-1
	interface-default_subface
	default_interior-1
	default_subface
	default
     parallel,
The automatic selection for flux type has changed to Rhie-Chow: momentum based.

Done.


> 
adjoint/                parallel/               server/
define/                 parametric-study/       solve/
display/                plot/                   surface/
exit                    preferences/            turbo-workflow/
file/                   print-license-usage     views/
mesh/                   report/

> /define/models/solver/density-based-implicit yes

> 
adjoint/                parallel/               server/
define/                 parametric-study/       solve/
display/                plot/                   surface/
exit                    preferences/            turbo-workflow/
file/                   print-license-usage     views/
mesh/                   report/

> /define/models/energy? yes yes invalid command [yes]
yes

> /define/models/viscous/inviscid yes

> 
adjoint/                parallel/               server/
define/                 parametric-study/       solve/
display/                plot/                   surface/
exit                    preferences/            turbo-workflow/
file/                   print-license-usage     views/
mesh/                   report/

> /define/materials/change-create air air air is a fluid
yes 
Density
ideal-gas no data required.

no no no no 

> 
adjoint/                parallel/               server/
define/                 parametric-study/       solve/
display/                plot/                   surface/
exit                    preferences/            turbo-workflow/
file/                   print-license-usage     views/
mesh/                   report/

> /mesh/modify-zones/sep-face-zone-angle 2 90 yes

 2350 faces in contiguous region 0
 168 faces in contiguous region 1
 282 faces in contiguous region 2
 2350 faces in contiguous region 3
 150 faces in contiguous region 4
 Separates zone 2 into 5 zone(s).
Updating new zone information...
   created new zone default_subface:010 from default_subface
   created new zone default_subface:009 from default_subface
   created new zone default_subface:008 from default_subface
   created new zone default_subface:007 from default_subface
done.

> 
adjoint/                parallel/               server/
define/                 parametric-study/       solve/
display/                plot/                   surface/
exit                    preferences/            turbo-workflow/
file/                   print-license-usage     views/
mesh/                   report/

> /define/boundary-conditions/zone-name  5   te

> /define/boundary-conditions/zone-name  7 wing

> /define/boundary-conditions/zone-name  2 sym1

> /define/boundary-conditions/zone-name  9 sym2

> 
adjoint/                parallel/               server/
define/                 parametric-study/       solve/
display/                plot/                   surface/
exit                    preferences/            turbo-workflow/
file/                   print-license-usage     views/
mesh/                   report/

> /define/boundary-conditions/zone-name  8 far1

> /define/boundary-conditions/zone-name 10 far2

> 
adjoint/                parallel/               server/
define/                 parametric-study/       solve/
display/                plot/                   surface/
exit                    preferences/            turbo-workflow/
file/                   print-license-usage     views/
mesh/                   report/

> /define/boundary-conditions/zone-type  8 pressure-far-field

> /define/boundary-conditions/zone-type 10 pressure-far-field

> /define/boundary-conditions/zone-type  2 symmetry

> /define/boundary-conditions/zone-type  9 symmetry

> 
adjoint/                parallel/               server/
define/                 parametric-study/       solve/
display/                plot/                   surface/
exit                    preferences/            turbo-workflow/
file/                   print-license-usage     views/
mesh/                   report/

> /define/boundary-conditions/pressure-far-field (far2 far1)
far1 no 0 no 0.1 no 300 yes no 1 no 0 no 0

> /define/boundary-conditions/pressure-far-field (far2 far1)
far2 no 0 no 0.1 no 300 yes no 1 no 0 no 0

> 
adjoint/                parallel/               server/
define/                 parametric-study/       solve/
display/                plot/                   surface/
exit                    preferences/            turbo-workflow/
file/                   print-license-usage     views/
mesh/                   report/

> /solve/initialize/compute-defaults/pressure-far-field (far2 far1)
far1

> /solve/initialize/initialize-flow

> 
adjoint/                parallel/               server/
define/                 parametric-study/       solve/
display/                plot/                   surface/
exit                    preferences/            turbo-workflow/
file/                   print-license-usage     views/
mesh/                   report/

> /solve/monitors/residual/convergence-criteria 1.e-9 1.e-9 1.e-9 1.e-9 1.e-9

> /solve/iterate 2000

  iter  continuity  x-velocity  y-velocity  z-velocity      energy     time/iter
     1  1.0000e+00  1.0000e+00  1.0000e+00  0.0000e+00  1.0000e+00  0:00:00 1999
     2  5.7166e-01  5.6444e-01  4.0856e-01  1.0000e+00  5.7170e-01  0:00:00 1998
     3  2.8367e-01  2.7603e-01  2.9055e-01  8.5814e-01  2.8340e-01  0:00:00 1997
     4  1.4514e-01  2.3952e-01  1.9441e-01  7.9770e-01  1.4486e-01  0:00:00 1996
     5  1.1976e-01  1.9724e-01  1.2224e-01  8.4612e-01  1.1980e-01  0:00:00 1995
     6  1.1415e-01  1.4775e-01  8.5973e-02  8.9234e-01  1.1431e-01  0:33:14 1994
     7  9.9670e-02  1.0867e-01  6.8445e-02  9.3633e-01  9.9792e-02  0:26:34 1993
     8  8.7059e-02  8.4133e-02  5.0530e-02  9.6200e-01  8.7109e-02  0:21:15 1992
     9  7.7811e-02  7.0256e-02  3.8036e-02  9.2943e-01  7.7801e-02  0:16:59 1991
    10  7.0468e-02  6.3239e-02  2.9506e-02  8.4367e-01  7.0431e-02  0:13:35 1990
    11  6.4010e-02  5.9317e-02  2.3379e-02  7.3590e-01  6.3962e-02  0:10:52 1989

  iter  continuity  x-velocity  y-velocity  z-velocity      energy     time/iter
    12  5.7871e-02  5.6002e-02  1.9081e-02  6.6948e-01  5.7819e-02  0:08:41 1988
    13  5.1943e-02  5.2325e-02  1.6211e-02  6.7356e-01  5.1890e-02  0:06:57 1987
    14  4.6128e-02  4.7969e-02  1.4501e-02  7.0831e-01  4.6076e-02  0:05:33 1986
    15  4.0414e-02  4.3015e-02  1.3603e-02  7.7042e-01  4.0365e-02  0:04:26 1985
    16  3.4887e-02  3.7677e-02  1.3150e-02  8.3319e-01  3.4840e-02  0:03:33 1984
    17  2.9617e-02  3.2324e-02  1.2863e-02  8.8673e-01  2.9573e-02  0:02:50 1983
    18  2.4702e-02  2.7481e-02  1.2598e-02  9.2159e-01  2.4662e-02  0:02:16 1982
    19  2.0232e-02  2.3765e-02  1.2272e-02  9.3223e-01  2.0196e-02  0:01:49 1981
    20  1.6290e-02  2.1715e-02  1.1850e-02  9.1684e-01  1.6258e-02  0:01:27 1980
    21  1.2968e-02  2.1432e-02  1.1319e-02  8.5954e-01  1.2940e-02  0:01:10 1979
    22  1.0380e-02  2.2442e-02  1.0686e-02  7.7449e-01  1.0358e-02  0:00:56 1978

  iter  continuity  x-velocity  y-velocity  z-velocity      energy     time/iter
    23  8.6557e-03  2.4014e-02  9.9665e-03  6.6639e-01  8.6381e-03  0:00:45 1977
    24  7.8523e-03  2.5571e-02  9.1836e-03  5.2418e-01  7.8390e-03  0:00:36 1976
    25  7.8301e-03  2.6867e-02  8.3639e-03  3.8729e-01  7.8196e-03  0:00:28 1975
    26  8.2809e-03  2.7790e-02  7.5351e-03  3.3998e-01  8.2718e-03  0:00:23 1974
    27  8.9173e-03  2.8359e-02  6.7305e-03  4.2662e-01  8.9088e-03  0:00:18 1973
    28  9.5650e-03  2.8652e-02  5.9692e-03  5.8478e-01  9.5569e-03  0:00:15 1972
    29  1.0139e-02  2.8776e-02  5.2769e-03  7.4600e-01  1.0131e-02  0:00:12 1971
    30  1.0606e-02  2.8823e-02  4.6606e-03  8.7663e-01  1.0600e-02  0:00:09 1970
    31  1.0953e-02  2.8856e-02  4.1317e-03  9.5720e-01  1.0948e-02  0:06:41 1969
    32  1.1180e-02  2.8905e-02  3.6967e-03  9.9360e-01  1.1177e-02  0:05:21 1968
    33  1.1284e-02  2.8970e-02  3.3541e-03  9.8121e-01  1.1282e-02  0:04:17 1967

  iter  continuity  x-velocity  y-velocity  z-velocity      energy     time/iter
    34  1.1262e-02  2.9024e-02  3.1042e-03  9.0943e-01  1.1262e-02  0:03:25 1966
    35  1.1110e-02  2.9032e-02  2.9441e-03  7.9377e-01  1.1112e-02  0:02:44 1965
    36  1.0823e-02  2.8955e-02  2.8629e-03  6.4786e-01  1.0826e-02  0:02:11 1964
    37  1.0398e-02  2.8751e-02  2.8414e-03  4.8428e-01  1.0404e-02  0:01:45 1963
    38  9.8376e-03  2.8393e-02  2.8592e-03  3.3919e-01  9.8445e-03  0:01:24 1962
    39  9.1480e-03  2.7883e-02  2.8930e-03  2.4127e-01  9.1567e-03  0:01:07 1961
    40  8.3466e-03  2.7215e-02  2.9234e-03  2.3433e-01  8.3572e-03  0:00:54 1960
    41  7.4538e-03  2.6384e-02  2.9349e-03  2.7931e-01  7.4663e-03  0:00:43 1959
    42  6.5009e-03  2.5420e-02  2.9186e-03  3.2546e-01  6.5156e-03  0:00:34 1958
    43  5.5310e-03  2.4346e-02  2.8665e-03  3.4722e-01  5.5482e-03  0:00:27 1957
    44  4.6038e-03  2.3203e-02  2.7784e-03  3.3486e-01  4.6239e-03  0:00:22 1956

  iter  continuity  x-velocity  y-velocity  z-velocity      energy     time/iter
    45  3.7972e-03  2.2025e-02  2.6564e-03  2.9466e-01  3.8203e-03  0:00:18 1955
    46  3.2200e-03  2.0859e-02  2.5105e-03  2.4583e-01  3.2453e-03  0:00:14 1954
    47  2.9734e-03  1.9745e-02  2.3546e-03  2.3185e-01  2.9986e-03  0:00:11 1953
    48  3.0621e-03  1.8706e-02  2.2027e-03  2.9320e-01  3.0843e-03  0:00:09 1952
    49  3.3856e-03  1.7783e-02  2.0761e-03  4.1048e-01  3.4037e-03  0:00:07 1951
    50  3.7996e-03  1.6985e-02  1.9865e-03  5.5333e-01  3.8142e-03  0:00:06 1950
    51  4.2046e-03  1.6316e-02  1.9416e-03  7.0390e-01  4.2167e-03  0:00:05 1949
    52  4.5455e-03  1.5780e-02  1.9379e-03  8.5151e-01  4.5559e-03  0:00:04 1948
    53  4.7954e-03  1.5363e-02  1.9664e-03  9.9031e-01  4.8048e-03  0:00:03 1947
    54  4.9448e-03  1.5046e-02  2.0139e-03  1.1126e+00  4.9537e-03  0:00:02 1946
    55  4.9933e-03  1.4792e-02  2.0654e-03  1.2117e+00  5.0021e-03  0:00:02 1945

  iter  continuity  x-velocity  y-velocity  z-velocity      energy     time/iter
    56  4.9486e-03  1.4576e-02  2.1117e-03  1.2835e+00  4.9576e-03  0:00:01 1944
    57  4.8224e-03  1.4374e-02  2.1425e-03  1.3212e+00  4.8317e-03  0:00:01 1943
    58  4.6299e-03  1.4158e-02  2.1517e-03  1.3184e+00  4.6396e-03  0:00:01 1942
    59  4.3891e-03  1.3901e-02  2.1350e-03  1.2864e+00  4.3993e-03  0:00:01 1941
    60  4.1140e-03  1.3584e-02  2.0907e-03  1.2139e+00  4.1248e-03  0:00:01 1940
    61  3.8224e-03  1.3198e-02  2.0238e-03  1.1161e+00  3.8339e-03  0:00:00 1939
    62  3.5291e-03  1.2732e-02  1.9391e-03  9.9732e-01  3.5411e-03  0:00:00 1938
    63  3.2463e-03  1.2194e-02  1.8436e-03  8.5951e-01  3.2586e-03  0:00:00 1937
    64  2.9839e-03  1.1602e-02  1.7424e-03  7.0545e-01  2.9962e-03  0:00:00 1936
    65  2.7489e-03  1.0964e-02  1.6483e-03  5.4661e-01  2.7608e-03  0:06:27 1935
    66  2.5428e-03  1.0302e-02  1.5687e-03  4.0715e-01  2.5539e-03  0:05:10 1934

  iter  continuity  x-velocity  y-velocity  z-velocity      energy     time/iter
    67  2.3639e-03  9.6360e-03  1.5118e-03  3.3692e-01  2.3739e-03  0:04:08 1933
    68  2.2092e-03  8.9888e-03  1.4809e-03  3.7983e-01  2.2178e-03  0:03:18 1932
    69  2.0757e-03  8.3980e-03  1.4752e-03  5.1166e-01  2.0827e-03  0:02:38 1931
    70  1.9598e-03  7.8887e-03  1.4927e-03  6.7245e-01  1.9651e-03  0:02:07 1930
    71  1.8576e-03  7.4844e-03  1.5251e-03  8.3280e-01  1.8614e-03  0:01:41 1929
    72  1.7694e-03  7.2025e-03  1.5630e-03  9.7950e-01  1.7720e-03  0:01:21 1928
    73  1.6959e-03  7.0332e-03  1.5997e-03  1.1093e+00  1.6975e-03  0:01:05 1927
    74  1.6399e-03  6.9736e-03  1.6284e-03  1.2187e+00  1.6408e-03  0:00:52 1926
    75  1.6033e-03  7.0083e-03  1.6457e-03  1.3046e+00  1.6038e-03  0:00:41 1925
    76  1.5843e-03  7.0882e-03  1.6474e-03  1.3659e+00  1.5846e-03  0:00:33 1924
    77  1.5845e-03  7.1910e-03  1.6340e-03  1.4013e+00  1.5847e-03  0:00:26 1923

  iter  continuity  x-velocity  y-velocity  z-velocity      energy     time/iter
    78  1.5956e-03  7.2680e-03  1.5977e-03  1.4101e+00  1.5959e-03  0:00:21 1922
    79  1.6179e-03  7.3210e-03  1.5475e-03  1.3929e+00  1.6182e-03  0:00:17 1921
    80  1.6445e-03  7.3474e-03  1.4821e-03  1.3438e+00  1.6448e-03  0:00:14 1920
    81  1.6702e-03  7.3258e-03  1.4035e-03  1.2820e+00  1.6705e-03  0:00:11 1919
    82  1.6902e-03  7.2492e-03  1.3132e-03  1.1980e+00  1.6903e-03  0:00:09 1918
    83  1.7014e-03  7.1218e-03  1.2133e-03  1.0862e+00  1.7013e-03  0:00:07 1917
    84  1.7023e-03  6.9491e-03  1.1068e-03  9.5654e-01  1.7019e-03  0:00:06 1916
    85  1.6895e-03  6.7307e-03  9.9664e-04  8.3028e-01  1.6888e-03  0:00:04 1915
    86  1.6620e-03  6.4754e-03  8.8731e-04  6.9737e-01  1.6609e-03  0:00:04 1914
    87  1.6209e-03  6.1947e-03  7.7998e-04  5.5472e-01  1.6195e-03  0:00:03 1913
    88  1.5665e-03  5.8988e-03  6.8074e-04  4.1265e-01  1.5647e-03  0:00:02 1912

  iter  continuity  x-velocity  y-velocity  z-velocity      energy     time/iter
    89  1.4989e-03  5.6004e-03  5.9619e-04  2.7645e-01  1.4968e-03  0:00:02 1911
    90  1.4181e-03  5.3037e-03  5.2956e-04  1.5671e-01  1.4156e-03  0:00:01 1910
    91  1.3273e-03  5.0292e-03  4.8155e-04  1.0640e-01  1.3247e-03  0:00:01 1909
    92  1.2294e-03  4.7668e-03  4.5856e-04  1.7577e-01  1.2267e-03  0:00:01 1908
    93  1.1263e-03  4.5159e-03  4.5920e-04  2.7401e-01  1.1235e-03  0:00:01 1907
    94  1.0211e-03  4.2693e-03  4.7220e-04  3.6527e-01  1.0183e-03  0:00:01 1906
    95  9.1614e-04  4.0498e-03  5.0062e-04  4.4494e-01  9.1352e-04  0:00:00 1905
    96  8.1568e-04  3.8524e-03  5.3910e-04  5.1145e-01  8.1336e-04  0:00:00 1904
    97  7.2656e-04  3.6849e-03  5.7468e-04  5.6498e-01  7.2470e-04  0:00:00 1903
    98  6.5799e-04  3.5517e-03  6.0249e-04  6.0370e-01  6.5672e-04  0:06:21 1902
    99  6.1822e-04  3.4529e-03  6.2349e-04  6.3013e-01  6.1758e-04  0:05:04 1901

  iter  continuity  x-velocity  y-velocity  z-velocity      energy     time/iter
   100  6.1221e-04  3.3617e-03  6.4262e-04  6.4447e-01  6.1211e-04  0:04:03 1900
   101  6.3129e-04  3.3377e-03  6.4325e-04  6.4515e-01  6.3147e-04  0:03:15 1899
   102  6.7653e-04  3.3059e-03  6.4016e-04  6.3424e-01  6.7686e-04  0:02:36 1898
   103  7.3639e-04  3.2803e-03  6.3054e-04  6.1244e-01  7.3668e-04  0:02:04 1897
   104  8.0286e-04  3.2372e-03  6.0914e-04  5.8234e-01  8.0301e-04  0:01:39 1896
   105  8.6633e-04  3.1776e-03  5.8705e-04  5.4450e-01  8.6629e-04  0:01:20 1895
   106  9.2544e-04  3.1252e-03  5.6515e-04  5.0083e-01  9.2517e-04  0:01:04 1894
   107  9.8041e-04  3.0804e-03  5.3272e-04  4.5417e-01  9.7989e-04  0:00:51 1893
   108  1.0282e-03  3.0390e-03  4.9450e-04  4.0393e-01  1.0274e-03  0:00:41 1892
   109  1.0674e-03  3.0031e-03  4.5788e-04  3.5513e-01  1.0664e-03  0:00:33 1891
   110  1.0969e-03  2.9872e-03  4.2171e-04  3.1141e-01  1.0956e-03  0:00:26 1890

  iter  continuity  x-velocity  y-velocity  z-velocity      energy     time/iter
   111  1.1141e-03  2.9792e-03  3.8544e-04  2.7220e-01  1.1126e-03  0:00:21 1889
   112  1.1202e-03  2.9533e-03  3.5310e-04  2.3225e-01  1.1185e-03  0:00:17 1888
   113  1.1201e-03  2.9364e-03  3.2711e-04  1.9441e-01  1.1183e-03  0:00:13 1887
   114  1.1049e-03  2.9158e-03  3.0767e-04  1.7040e-01  1.1030e-03  0:00:11 1886
   115  1.0785e-03  2.8730e-03  2.8788e-04  1.4136e-01  1.0766e-03  0:00:08 1885
   116  1.0448e-03  2.8208e-03  2.8052e-04  1.3615e-01  1.0429e-03  0:00:07 1884
   117  1.0043e-03  2.7509e-03  2.8400e-04  1.5340e-01  1.0025e-03  0:00:05 1883
   118  9.5983e-04  2.6619e-03  2.9016e-04  1.6372e-01  9.5802e-04  0:00:04 1882
   119  9.1358e-04  2.5657e-03  2.9938e-04  2.1977e-01  9.1179e-04  0:00:03 1881
   120  8.6643e-04  2.4551e-03  3.1116e-04  2.2219e-01  8.6463e-04  0:00:03 1880
   121  8.1954e-04  2.3108e-03  3.2678e-04  2.7768e-01  8.1771e-04  0:00:02 1879

  iter  continuity  x-velocity  y-velocity  z-velocity      energy     time/iter
   122  7.7598e-04  2.1733e-03  3.4295e-04  5.3775e-01  7.7410e-04  0:00:02 1878
   123  7.3966e-04  2.1599e-03  3.5731e-04  1.2643e+00  7.3773e-04  0:00:01 1877
   124  7.1116e-04  2.1251e-03  3.6579e-04  1.6402e+00  7.0915e-04  0:00:01 1876
   125  6.9095e-04  2.0628e-03  3.6778e-04  8.7360e-01  6.8884e-04  0:00:01 1875
   126  6.7979e-04  1.9779e-03  3.6837e-04  9.2785e-01  6.7758e-04  0:00:01 1874
   127  6.7677e-04  1.8444e-03  3.6511e-04  8.9031e-01  6.7448e-04  0:00:01 1873
   128  6.8141e-04  1.6847e-03  3.5808e-04  7.4691e-01  6.7905e-04  0:00:00 1872
   129  6.9111e-04  1.4915e-03  3.4608e-04  5.4204e-01  6.8871e-04  0:00:00 1871
   130  7.0415e-04  1.3182e-03  3.3131e-04  4.7033e-01  7.0175e-04  0:00:00 1870
   131  7.1935e-04  1.1839e-03  3.1374e-04  5.0685e-01  7.1697e-04  0:06:14 1869
   132  7.3342e-04  1.0889e-03  2.9500e-04  5.1923e-01  7.3110e-04  0:04:59 1868

  iter  continuity  x-velocity  y-velocity  z-velocity      energy     time/iter
   133  7.4470e-04  1.0284e-03  2.7566e-04  4.7810e-01  7.4246e-04  0:03:59 1867
   134  7.5224e-04  9.9755e-04  2.5646e-04  4.2868e-01  7.5010e-04  0:03:11 1866
   135  7.5549e-04  9.8803e-04  2.3856e-04  3.9057e-01  7.5345e-04  0:02:33 1865
   136  7.5420e-04  9.9276e-04  2.2315e-04  3.6463e-01  7.5230e-04  0:02:02 1864
   137  7.4846e-04  1.0060e-03  2.1138e-04  3.4409e-01  7.4669e-04  0:01:38 1863
   138  7.3844e-04  1.0224e-03  2.0384e-04  3.2115e-01  7.3682e-04  0:01:18 1862
   139  7.2501e-04  1.0429e-03  2.0074e-04  2.8028e-01  7.2353e-04  0:01:02 1861
   140  7.0844e-04  1.0625e-03  2.0184e-04  2.4956e-01  7.0711e-04  0:00:50 1860
   141  6.8904e-04  1.0755e-03  2.0649e-04  2.1193e-01  6.8785e-04  0:00:40 1859
   142  6.6770e-04  1.0801e-03  2.1273e-04  1.8060e-01  6.6663e-04  0:00:32 1858
   143  6.4518e-04  1.0766e-03  2.1918e-04  1.7742e-01  6.4421e-04  0:00:26 1857

  iter  continuity  x-velocity  y-velocity  z-velocity      energy     time/iter
   144  6.2205e-04  1.0650e-03  2.2507e-04  1.7608e-01  6.2117e-04  0:00:20 1856
   145  5.9871e-04  1.0451e-03  2.2986e-04  1.7220e-01  5.9790e-04  0:00:16 1855
   146  5.7541e-04  1.0170e-03  2.3308e-04  1.6566e-01  5.7465e-04  0:00:13 1854
   147  5.5255e-04  9.8309e-04  2.3437e-04  1.5811e-01  5.5181e-04  0:00:10 1853
   148  5.3024e-04  9.4397e-04  2.3366e-04  1.5062e-01  5.2949e-04  0:00:08 1852
   149  5.0846e-04  8.9876e-04  2.3068e-04  1.4372e-01  5.0768e-04  0:00:07 1851
   150  4.8719e-04  8.4807e-04  2.2565e-04  1.3631e-01  4.8636e-04  0:00:05 1850
   151  4.6653e-04  7.9284e-04  2.1856e-04  1.2812e-01  4.6562e-04  0:00:04 1849
   152  4.4665e-04  7.3418e-04  2.0933e-04  1.1986e-01  4.4566e-04  0:00:03 1848
   153  4.2768e-04  6.7413e-04  1.9863e-04  1.1162e-01  4.2660e-04  0:00:03 1847
   154  4.0972e-04  6.1490e-04  1.8684e-04  1.0436e-01  4.0855e-04  0:00:02 1846

  iter  continuity  x-velocity  y-velocity  z-velocity      energy     time/iter
   155  3.9306e-04  5.6057e-04  1.7428e-04  9.7345e-02  3.9180e-04  0:00:02 1845
   156  3.7784e-04  5.1277e-04  1.6149e-04  8.9354e-02  3.7651e-04  0:00:01 1844
   157  3.6428e-04  4.7311e-04  1.4879e-04  8.1298e-02  3.6290e-04  0:00:01 1843
   158  3.5257e-04  4.4244e-04  1.3671e-04  7.3343e-02  3.5117e-04  0:00:01 1842
   159  3.4285e-04  4.2095e-04  1.2572e-04  6.6860e-02  3.4146e-04  0:00:01 1841
   160  3.3515e-04  4.1052e-04  1.1626e-04  6.4309e-02  3.3381e-04  0:00:01 1840
   161  3.2937e-04  4.1247e-04  1.0878e-04  6.1817e-02  3.2809e-04  0:00:00 1839
   162  3.2505e-04  4.2395e-04  1.0356e-04  6.0272e-02  3.2385e-04  0:00:00 1838
   163  3.2196e-04  4.4178e-04  1.0063e-04  6.3416e-02  3.2087e-04  0:00:00 1837
   164  3.1971e-04  4.6285e-04  9.9182e-05  6.4746e-02  3.1872e-04  0:06:07 1836
   165  3.1772e-04  4.8420e-04  9.9106e-05  6.5358e-02  3.1685e-04  0:04:54 1835

  iter  continuity  x-velocity  y-velocity  z-velocity      energy     time/iter
   166  3.1550e-04  5.0401e-04  1.0009e-04  6.5508e-02  3.1475e-04  0:03:55 1834
   167  3.1260e-04  5.2083e-04  1.0169e-04  6.5530e-02  3.1196e-04  0:03:08 1833
   168  3.0861e-04  5.3373e-04  1.0351e-04  6.5398e-02  3.0807e-04  0:02:30 1832
   169  3.0319e-04  5.4209e-04  1.0522e-04  6.4792e-02  3.0274e-04  0:02:00 1831
   170  2.9614e-04  5.4553e-04  1.0660e-04  6.3516e-02  2.9576e-04  0:01:36 1830
   171  2.8730e-04  5.4396e-04  1.0750e-04  6.1385e-02  2.8700e-04  0:01:17 1829
   172  2.7666e-04  5.3753e-04  1.0782e-04  5.8415e-02  2.7641e-04  0:01:01 1828
   173  2.6427e-04  5.2657e-04  1.0753e-04  5.4691e-02  2.6405e-04  0:00:49 1827
   174  2.5026e-04  5.1153e-04  1.0663e-04  5.0333e-02  2.5007e-04  0:00:39 1826
   175  2.3484e-04  4.9293e-04  1.0514e-04  4.5505e-02  2.3468e-04  0:00:31 1825
   176  2.1831e-04  4.7142e-04  1.0308e-04  4.0341e-02  2.1815e-04  0:00:25 1824

  iter  continuity  x-velocity  y-velocity  z-velocity      energy     time/iter
   177  2.0102e-04  4.4774e-04  1.0053e-04  3.4929e-02  2.0086e-04  0:00:20 1823
   178  1.8339e-04  4.2267e-04  9.7520e-05  2.9460e-02  1.8321e-04  0:00:16 1822
   179  1.6595e-04  3.9711e-04  9.4123e-05  2.4141e-02  1.6574e-04  0:00:13 1821
   180  1.4929e-04  3.7201e-04  9.0393e-05  1.9893e-02  1.4905e-04  0:00:10 1820
   181  1.3415e-04  3.4835e-04  8.6388e-05  1.7149e-02  1.3387e-04  0:00:08 1819
   182  1.2134e-04  3.2713e-04  8.2169e-05  1.6950e-02  1.2102e-04  0:00:07 1818
   183  1.1172e-04  3.0924e-04  7.7788e-05  1.9130e-02  1.1135e-04  0:00:05 1817
   184  1.0597e-04  2.9536e-04  7.3306e-05  2.2597e-02  1.0556e-04  0:00:04 1816
   185  1.0433e-04  2.8597e-04  6.8778e-05  2.6584e-02  1.0390e-04  0:00:03 1815
   186  1.0644e-04  2.8110e-04  6.4241e-05  3.0240e-02  1.0600e-04  0:00:03 1814
   187  1.1144e-04  2.8036e-04  5.9742e-05  3.3270e-02  1.1102e-04  0:00:02 1813

  iter  continuity  x-velocity  y-velocity  z-velocity      energy     time/iter
   188  1.1827e-04  2.8302e-04  5.5336e-05  3.5519e-02  1.1788e-04  0:00:02 1812
   189  1.2597e-04  2.8812e-04  5.1074e-05  3.6984e-02  1.2560e-04  0:00:01 1811
   190  1.3373e-04  2.9464e-04  4.7016e-05  3.7767e-02  1.3340e-04  0:00:01 1810
   191  1.4098e-04  3.0167e-04  4.3252e-05  3.7737e-02  1.4067e-04  0:00:01 1809
   192  1.4728e-04  3.0838e-04  3.9891e-05  3.6986e-02  1.4700e-04  0:00:01 1808
   193  1.5233e-04  3.1409e-04  3.7068e-05  3.5528e-02  1.5208e-04  0:00:01 1807
   194  1.5595e-04  3.1832e-04  3.4924e-05  3.3434e-02  1.5571e-04  0:00:00 1806
   195  1.5799e-04  3.2068e-04  3.3588e-05  3.0807e-02  1.5777e-04  0:00:00 1805
   196  1.5841e-04  3.2094e-04  3.3143e-05  2.7772e-02  1.5821e-04  0:00:00 1804
   197  1.5718e-04  3.1898e-04  3.3588e-05  2.4421e-02  1.5699e-04  0:06:01 1803
   198  1.5433e-04  3.1477e-04  3.4830e-05  2.0893e-02  1.5416e-04  0:04:49 1802

  iter  continuity  x-velocity  y-velocity  z-velocity      energy     time/iter
   199  1.4992e-04  3.0838e-04  3.6698e-05  1.7364e-02  1.4976e-04  0:03:51 1801
   200  1.4405e-04  2.9997e-04  3.9006e-05  1.4084e-02  1.4390e-04  0:03:04 1800
   201  1.3684e-04  2.8971e-04  4.1570e-05  1.1489e-02  1.3670e-04  0:02:27 1799
   202  1.2843e-04  2.7790e-04  4.4227e-05  1.0164e-02  1.2831e-04  0:01:58 1798
   203  1.1902e-04  2.6486e-04  4.6834e-05  1.0588e-02  1.1890e-04  0:01:34 1797
   204  1.0881e-04  2.5098e-04  4.9273e-05  1.2517e-02  1.0870e-04  0:01:15 1796
   205  9.8045e-05  2.3676e-04  5.1449e-05  1.5082e-02  9.7947e-05  0:01:00 1795
   206  8.7024e-05  2.2268e-04  5.3286e-05  1.7947e-02  8.6931e-05  0:00:48 1794
   207  7.6110e-05  2.0928e-04  5.4716e-05  2.0794e-02  7.6020e-05  0:00:39 1793
   208  6.5774e-05  1.9709e-04  5.5687e-05  2.3392e-02  6.5686e-05  0:00:31 1792
   209  5.6649e-05  1.8663e-04  5.6160e-05  2.5616e-02  5.6560e-05  0:00:25 1791

  iter  continuity  x-velocity  y-velocity  z-velocity      energy     time/iter
   210  4.9560e-05  1.7833e-04  5.6107e-05  2.7386e-02  4.9465e-05  0:00:20 1790
   211  4.5410e-05  1.7244e-04  5.5517e-05  2.8657e-02  4.5308e-05  0:00:16 1789
   212  4.4751e-05  1.6903e-04  5.4386e-05  2.9414e-02  4.4645e-05  0:00:13 1788
   213  4.7311e-05  1.6792e-04  5.2724e-05  2.9665e-02  4.7202e-05  0:00:10 1787
   214  5.2120e-05  1.6876e-04  5.0556e-05  2.9414e-02  5.2010e-05  0:00:08 1786
   215  5.8103e-05  1.7104e-04  4.7915e-05  2.8677e-02  5.7993e-05  0:00:06 1785
   216  6.4422e-05  1.7419e-04  4.4847e-05  2.7514e-02  6.4311e-05  0:00:05 1784
   217  7.0512e-05  1.7766e-04  4.1413e-05  2.6189e-02  7.0400e-05  0:00:04 1783
   218  7.6018e-05  1.8104e-04  3.7683e-05  2.4427e-02  7.5905e-05  0:00:03 1782
   219  8.0706e-05  1.8392e-04  3.3748e-05  2.2325e-02  8.0591e-05  0:00:03 1781
   220  8.4431e-05  1.8601e-04  2.9715e-05  2.0008e-02  8.4315e-05  0:00:02 1780

  iter  continuity  x-velocity  y-velocity  z-velocity      energy     time/iter
   221  8.7108e-05  1.8710e-04  2.5724e-05  1.7535e-02  8.6992e-05  0:00:02 1779
   222  8.8699e-05  1.8704e-04  2.1966e-05  1.4938e-02  8.8582e-05  0:00:01 1778
   223  8.9197e-05  1.8577e-04  1.8715e-05  1.2259e-02  8.9082e-05  0:00:01 1777
   224  8.8627e-05  1.8326e-04  1.6345e-05  9.6039e-03  8.8513e-05  0:00:01 1776
   225  8.7036e-05  1.7954e-04  1.5253e-05  7.1490e-03  8.6926e-05  0:00:01 1775
   226  8.4494e-05  1.7466e-04  1.5606e-05  5.2479e-03  8.4388e-05  0:00:01 1774
   227  8.1089e-05  1.6874e-04  1.7162e-05  4.6775e-03  8.0987e-05  0:00:00 1773
   228  7.6925e-05  1.6192e-04  1.9456e-05  5.7570e-03  7.6829e-05  0:00:00 1772
   229  7.2121e-05  1.5436e-04  2.2071e-05  7.6234e-03  7.2032e-05  0:05:54 1771
   230  6.6811e-05  1.4626e-04  2.4722e-05  9.4873e-03  6.6729e-05  0:04:43 1770
   231  6.1148e-05  1.3783e-04  2.7230e-05  1.1425e-02  6.1073e-05  0:03:47 1769

  iter  continuity  x-velocity  y-velocity  z-velocity      energy     time/iter
   232  5.5300e-05  1.2930e-04  2.9484e-05  1.3183e-02  5.5232e-05  0:03:01 1768
   233  4.9466e-05  1.2093e-04  3.1410e-05  1.4598e-02  4.9405e-05  0:02:25 1767
   234  4.3878e-05  1.1300e-04  3.2961e-05  1.5848e-02  4.3825e-05  0:01:56 1766
   235  3.8817e-05  1.0578e-04  3.4114e-05  1.6872e-02  3.8770e-05  0:01:33 1765
   236  3.4617e-05  9.9550e-05  3.4855e-05  1.7647e-02  3.4575e-05  0:01:14 1764
   237  3.1636e-05  9.4560e-05  3.5182e-05  1.8158e-02  3.1598e-05  0:00:59 1763
   238  3.0159e-05  9.0998e-05  3.5105e-05  1.8402e-02  3.0122e-05  0:00:47 1762
   239  3.0246e-05  8.8934e-05  3.4638e-05  1.8382e-02  3.0209e-05  0:00:38 1761
   240  3.1674e-05  8.8308e-05  3.3805e-05  1.8109e-02  3.1635e-05  0:00:30 1760
   241  3.4036e-05  8.8945e-05  3.2633e-05  1.7593e-02  3.3995e-05  0:00:24 1759
   242  3.6913e-05  9.0581e-05  3.1158e-05  1.6850e-02  3.6869e-05  0:00:19 1758

  iter  continuity  x-velocity  y-velocity  z-velocity      energy     time/iter
   243  3.9961e-05  9.2910e-05  2.9416e-05  1.5901e-02  3.9914e-05  0:00:15 1757
   244  4.2932e-05  9.5624e-05  2.7452e-05  1.4772e-02  4.2883e-05  0:00:12 1756
   245  4.5655e-05  9.8445e-05  2.5315e-05  1.3485e-02  4.5604e-05  0:00:10 1755
   246  4.8014e-05  1.0114e-04  2.3055e-05  1.2059e-02  4.7962e-05  0:00:08 1754
   247  4.9933e-05  1.0350e-04  2.0734e-05  1.0529e-02  4.9880e-05  0:00:06 1753
   248  5.1365e-05  1.0540e-04  1.8419e-05  8.9413e-03  5.1314e-05  0:00:05 1752
   249  5.2287e-05  1.0670e-04  1.6189e-05  7.3105e-03  5.2235e-05  0:00:04 1751
   250  5.2690e-05  1.0733e-04  1.4143e-05  5.6715e-03  5.2640e-05  0:00:03 1750
   251  5.2580e-05  1.0726e-04  1.2398e-05  4.0405e-03  5.2532e-05  0:00:03 1749
   252  5.1972e-05  1.0644e-04  1.1091e-05  2.5028e-03  5.1925e-05  0:00:02 1748
   253  5.0891e-05  1.0487e-04  1.0344e-05  1.1804e-03  5.0846e-05  0:00:02 1747

  iter  continuity  x-velocity  y-velocity  z-velocity      energy     time/iter
   254  4.9373e-05  1.0257e-04  1.0203e-05  1.2108e-03  4.9330e-05  0:05:51 1746
   255  4.7458e-05  9.9572e-05  1.0596e-05  2.4568e-03  4.7418e-05  0:04:40 1745
   256  4.5195e-05  9.5938e-05  1.1364e-05  3.7063e-03  4.5157e-05  0:03:44 1744
   257  4.2637e-05  9.1732e-05  1.2334e-05  4.8812e-03  4.2600e-05  0:02:59 1743
   258  3.9842e-05  8.7033e-05  1.3367e-05  5.9617e-03  3.9808e-05  0:02:23 1742
   259  3.6877e-05  8.1940e-05  1.4364e-05  6.9636e-03  3.6844e-05  0:01:55 1741
   260  3.3813e-05  7.6562e-05  1.5262e-05  7.8255e-03  3.3781e-05  0:01:32 1740
   261  3.0732e-05  7.1026e-05  1.6018e-05  8.5825e-03  3.0700e-05  0:01:13 1739
   262  2.7721e-05  6.5462e-05  1.6608e-05  9.1951e-03  2.7689e-05  0:00:59 1738
   263  2.4887e-05  6.0049e-05  1.7019e-05  9.7027e-03  2.4853e-05  0:00:47 1737
   264  2.2345e-05  5.4957e-05  1.7248e-05  1.0088e-02  2.2309e-05  0:00:37 1736

  iter  continuity  x-velocity  y-velocity  z-velocity      energy     time/iter
   265  2.0224e-05  5.0383e-05  1.7295e-05  1.0340e-02  2.0185e-05  0:00:30 1735
   266  1.8651e-05  4.6537e-05  1.7169e-05  1.0471e-02  1.8609e-05  0:00:24 1734
   267  1.7714e-05  4.3598e-05  1.6881e-05  1.0474e-02  1.7670e-05  0:00:19 1733
   268  1.7429e-05  4.1692e-05  1.6446e-05  1.0354e-02  1.7385e-05  0:00:15 1732
   269  1.7720e-05  4.0844e-05  1.5882e-05  1.0117e-02  1.7678e-05  0:00:12 1731
   270  1.8443e-05  4.0962e-05  1.5208e-05  9.7738e-03  1.8403e-05  0:00:10 1730
   271  1.9430e-05  4.1852e-05  1.4447e-05  9.3434e-03  1.9393e-05  0:00:08 1729
   272  2.0530e-05  4.3272e-05  1.3622e-05  8.8343e-03  2.0497e-05  0:00:06 1728
   273  2.1624e-05  4.4979e-05  1.2759e-05  8.2663e-03  2.1595e-05  0:00:05 1727
   274  2.2623e-05  4.6760e-05  1.1883e-05  7.6507e-03  2.2598e-05  0:00:04 1726
   275  2.3466e-05  4.8446e-05  1.1022e-05  6.9894e-03  2.3444e-05  0:00:03 1725

  iter  continuity  x-velocity  y-velocity  z-velocity      energy     time/iter
   276  2.4111e-05  4.9905e-05  1.0203e-05  6.3004e-03  2.4092e-05  0:00:03 1724
   277  2.4532e-05  5.1043e-05  9.4518e-06  5.5922e-03  2.4516e-05  0:00:02 1723
   278  2.4714e-05  5.1796e-05  8.7942e-06  4.8723e-03  2.4701e-05  0:00:02 1722
   279  2.4653e-05  5.2122e-05  8.2501e-06  4.1530e-03  2.4642e-05  0:00:01 1721
   280  2.4353e-05  5.2002e-05  7.8320e-06  3.4500e-03  2.4343e-05  0:00:01 1720
   281  2.3821e-05  5.1432e-05  7.5424e-06  2.7826e-03  2.3813e-05  0:00:01 1719
   282  2.3073e-05  5.0420e-05  7.3725e-06  2.1739e-03  2.3067e-05  0:00:01 1718
   283  2.2129e-05  4.8990e-05  7.3027e-06  1.6836e-03  2.2123e-05  0:00:01 1717
   284  2.1011e-05  4.7174e-05  7.3072e-06  1.4160e-03  2.1005e-05  0:00:00 1716
   285  1.9747e-05  4.5011e-05  7.3581e-06  1.4516e-03  1.9741e-05  0:00:00 1715
   286  1.8368e-05  4.2551e-05  7.4291e-06  1.7367e-03  1.8362e-05  0:05:43 1714

  iter  continuity  x-velocity  y-velocity  z-velocity      energy     time/iter
   287  1.6910e-05  3.9850e-05  7.4975e-06  2.1361e-03  1.6903e-05  0:04:34 1713
   288  1.5411e-05  3.6971e-05  7.5458e-06  2.5631e-03  1.5403e-05  0:03:39 1712
   289  1.3919e-05  3.3987e-05  7.5611e-06  2.9829e-03  1.3908e-05  0:02:55 1711
   290  1.2484e-05  3.0977e-05  7.5351e-06  3.3772e-03  1.2470e-05  0:02:20 1710
   291  1.1168e-05  2.8034e-05  7.4633e-06  3.7300e-03  1.1151e-05  0:01:52 1709
   292  1.0040e-05  2.5262e-05  7.3446e-06  4.0348e-03  1.0019e-05  0:01:30 1708
   293  9.1721e-06  2.2780e-05  7.1803e-06  4.2873e-03  9.1462e-06  0:01:12 1707
   294  8.6243e-06  2.0716e-05  6.9744e-06  4.4860e-03  8.5949e-06  0:00:57 1706
   295  8.4220e-06  1.9191e-05  6.7324e-06  4.6315e-03  8.3906e-06  0:00:46 1705
   296  8.5382e-06  1.8291e-05  6.4617e-06  4.7245e-03  8.5064e-06  0:00:37 1704
   297  8.9007e-06  1.8026e-05  6.1706e-06  4.7646e-03  8.8703e-06  0:00:29 1703

  iter  continuity  x-velocity  y-velocity  z-velocity      energy     time/iter
   298  9.4194e-06  1.8322e-05  5.8684e-06  4.7531e-03  9.3911e-06  0:00:23 1702
   299  1.0010e-05  1.9038e-05  5.5653e-06  4.6920e-03  9.9841e-06  0:00:19 1701
   300  1.0605e-05  2.0013e-05  5.2716e-06  4.5832e-03  1.0582e-05  0:00:15 1700
   301  1.1155e-05  2.1099e-05  4.9976e-06  4.4292e-03  1.1134e-05  0:00:12 1699
   302  1.1625e-05  2.2181e-05  4.7524e-06  4.2316e-03  1.1608e-05  0:00:10 1698
   303  1.1994e-05  2.3170e-05  4.5439e-06  3.9955e-03  1.1979e-05  0:00:08 1697
   304  1.2247e-05  2.4007e-05  4.3769e-06  3.7266e-03  1.2234e-05  0:00:06 1696
   305  1.2376e-05  2.4649e-05  4.2534e-06  3.4281e-03  1.2365e-05  0:00:05 1695
   306  1.2379e-05  2.5073e-05  4.1716e-06  3.1048e-03  1.2370e-05  0:00:04 1694
   307  1.2258e-05  2.5265e-05  4.1266e-06  2.7620e-03  1.2250e-05  0:00:03 1693
   308  1.2018e-05  2.5222e-05  4.1106e-06  2.4052e-03  1.2012e-05  0:00:02 1692

  iter  continuity  x-velocity  y-velocity  z-velocity      energy     time/iter
   309  1.1667e-05  2.4948e-05  4.1146e-06  2.0430e-03  1.1662e-05  0:00:02 1691
   310  1.1215e-05  2.4454e-05  4.1291e-06  1.6832e-03  1.1211e-05  0:00:02 1690
   311  1.0675e-05  2.3756e-05  4.1452e-06  1.3399e-03  1.0671e-05  0:00:01 1689
   312  1.0060e-05  2.2873e-05  4.1551e-06  1.0369e-03  1.0057e-05  0:00:01 1688
   313  9.3882e-06  2.1829e-05  4.1524e-06  8.1986e-04  9.3845e-06  0:00:01 1687
   314  8.6757e-06  2.0651e-05  4.1322e-06  7.4877e-04  8.6717e-06  0:00:01 1686
   315  7.9429e-06  1.9367e-05  4.0911e-06  8.4533e-04  7.9381e-06  0:00:01 1685
   316  7.2118e-06  1.8010e-05  4.0269e-06  1.0489e-03  7.2059e-06  0:00:00 1684
   317  6.5073e-06  1.6613e-05  3.9386e-06  1.2908e-03  6.4999e-06  0:00:00 1683
   318  5.8574e-06  1.5213e-05  3.8265e-06  1.5381e-03  5.8481e-06  0:00:00 1682
   319  5.2930e-06  1.3849e-05  3.6914e-06  1.7730e-03  5.2815e-06  0:05:36 1681

  iter  continuity  x-velocity  y-velocity  z-velocity      energy     time/iter
   320  4.8454e-06  1.2565e-05  3.5353e-06  1.9871e-03  4.8317e-06  0:04:29 1680
   321  4.5409e-06  1.1402e-05  3.3606e-06  2.1743e-03  4.5251e-06  0:03:35 1679
   322  4.3918e-06  1.0408e-05  3.1705e-06  2.3318e-03  4.3745e-06  0:02:52 1678
   323  4.3896e-06  9.6206e-06  2.9690e-06  2.4581e-03  4.3715e-06  0:02:17 1677
   324  4.5059e-06  9.0683e-06  2.7606e-06  2.5526e-03  4.4879e-06  0:01:50 1676
   325  4.7019e-06  8.7566e-06  2.5504e-06  2.6121e-03  4.6846e-06  0:01:28 1675
   326  4.9389e-06  8.6639e-06  2.3444e-06  2.6402e-03  4.9225e-06  0:01:10 1674
   327  5.1840e-06  8.7461e-06  2.1494e-06  2.6383e-03  5.1688e-06  0:00:56 1673
   328  5.4124e-06  8.9471e-06  1.9729e-06  2.6076e-03  5.3983e-06  0:00:45 1672
   329  5.6062e-06  9.2107e-06  1.8229e-06  2.5495e-03  5.5933e-06  0:00:36 1671
   330  5.7534e-06  9.4889e-06  1.7072e-06  2.4652e-03  5.7416e-06  0:00:29 1670

  iter  continuity  x-velocity  y-velocity  z-velocity      energy     time/iter
   331  5.8464e-06  9.7439e-06  1.6316e-06  2.3578e-03  5.8357e-06  0:00:23 1669
   332  5.8813e-06  9.9484e-06  1.5984e-06  2.2302e-03  5.8715e-06  0:00:18 1668
   333  5.8569e-06  1.0084e-05  1.6048e-06  2.0853e-03  5.8480e-06  0:00:15 1667
   334  5.7744e-06  1.0140e-05  1.6442e-06  1.9268e-03  5.7663e-06  0:00:12 1666
   335  5.6369e-06  1.0110e-05  1.7072e-06  1.7573e-03  5.6295e-06  0:00:09 1665
   336  5.4493e-06  9.9953e-06  1.7840e-06  1.5811e-03  5.4426e-06  0:00:07 1664
   337  5.2181e-06  9.7975e-06  1.8658e-06  1.4019e-03  5.2118e-06  0:00:06 1663
   338  4.9511e-06  9.5232e-06  1.9454e-06  1.2244e-03  4.9453e-06  0:00:05 1662
   339  4.6579e-06  9.1813e-06  2.0170e-06  1.0524e-03  4.6523e-06  0:00:04 1661
   340  4.3496e-06  8.7828e-06  2.0764e-06  8.9174e-04  4.3441e-06  0:00:03 1660
   341  4.0389e-06  8.3408e-06  2.1205e-06  7.5114e-04  4.0333e-06  0:00:02 1659

  iter  continuity  x-velocity  y-velocity  z-velocity      energy     time/iter
   342  3.7405e-06  7.8703e-06  2.1472e-06  6.4276e-04  3.7346e-06  0:00:02 1658
   343  3.4704e-06  7.3878e-06  2.1552e-06  5.7877e-04  3.4640e-06  0:00:02 1657
   344  3.2455e-06  6.9113e-06  2.1439e-06  5.6428e-04  3.2384e-06  0:00:01 1656
   345  3.0813e-06  6.4605e-06  2.1132e-06  5.9353e-04  3.0735e-06  0:00:01 1655
   346  2.9890e-06  6.0550e-06  2.0635e-06  6.5079e-04  2.9803e-06  0:00:01 1654
   347  2.9716e-06  5.7135e-06  1.9959e-06  7.2033e-04  2.9622e-06  0:00:01 1653
   348  3.0232e-06  5.4518e-06  1.9115e-06  7.9264e-04  3.0133e-06  0:00:01 1652
   349  3.1301e-06  5.2794e-06  1.8122e-06  8.6076e-04  3.1199e-06  0:05:31 1651
   350  3.2749e-06  5.1976e-06  1.7002e-06  9.1970e-04  3.2646e-06  0:04:24 1650
   351  3.4401e-06  5.1988e-06  1.5778e-06  9.6739e-04  3.4298e-06  0:03:31 1649
   352  3.6101e-06  5.2679e-06  1.4484e-06  1.0028e-03  3.5999e-06  0:02:49 1648

  iter  continuity  x-velocity  y-velocity  z-velocity      energy     time/iter
   353  3.7724e-06  5.3853e-06  1.3154e-06  1.0256e-03  3.7624e-06  0:02:15 1647
   354  3.9170e-06  5.5307e-06  1.1834e-06  1.0360e-03  3.9073e-06  0:01:48 1646
   355  4.0369e-06  5.6847e-06  1.0578e-06  1.0346e-03  4.0275e-06  0:01:26 1645
   356  4.1268e-06  5.8312e-06  9.4530e-07  1.0222e-03  4.1177e-06  0:01:09 1644
   357  4.1833e-06  5.9570e-06  8.5391e-07  9.9998e-04  4.1746e-06  0:00:55 1643
   358  4.2047e-06  6.0521e-06  7.9185e-07  9.6934e-04  4.1964e-06  0:00:44 1642
   359  4.1902e-06  6.1095e-06  7.6511e-07  9.3174e-04  4.1824e-06  0:00:35 1641
   360  4.1404e-06  6.1245e-06  7.7438e-07  8.8882e-04  4.1330e-06  0:00:28 1640
   361  4.0567e-06  6.0947e-06  8.1404e-07  8.4252e-04  4.0497e-06  0:00:23 1639
   362  3.9413e-06  6.0195e-06  8.7479e-07  7.9472e-04  3.9348e-06  0:00:18 1638
   363  3.7974e-06  5.8998e-06  9.4707e-07  7.4730e-04  3.7912e-06  0:00:14 1637

  iter  continuity  x-velocity  y-velocity  z-velocity      energy     time/iter
   364  3.6286e-06  5.7381e-06  1.0229e-06  7.0248e-04  3.6229e-06  0:00:12 1636
   365  3.4396e-06  5.5382e-06  1.0964e-06  6.6214e-04  3.4342e-06  0:00:09 1635
   366  3.2355e-06  5.3051e-06  1.1632e-06  6.2815e-04  3.2304e-06  0:00:07 1634
   367  3.0222e-06  5.0446e-06  1.2203e-06  6.0178e-04  3.0173e-06  0:00:06 1633
   368  2.8065e-06  4.7640e-06  1.2658e-06  5.8393e-04  2.8017e-06  0:00:05 1632
   369  2.5957e-06  4.4714e-06  1.2981e-06  5.7460e-04  2.5910e-06  0:00:04 1631
   370  2.3983e-06  4.1762e-06  1.3166e-06  5.7283e-04  2.3934e-06  0:00:03 1630
   371  2.2228e-06  3.8887e-06  1.3209e-06  5.7715e-04  2.2178e-06  0:00:02 1629
   372  2.0782e-06  3.6201e-06  1.3109e-06  5.8589e-04  2.0729e-06  0:00:02 1628
   373  1.9718e-06  3.3823e-06  1.2871e-06  5.9754e-04  1.9662e-06  0:00:02 1627
   374  1.9083e-06  3.1864e-06  1.2501e-06  6.1048e-04  1.9023e-06  0:00:01 1626

  iter  continuity  x-velocity  y-velocity  z-velocity      energy     time/iter
   375  1.8879e-06  3.0418e-06  1.2007e-06  6.2301e-04  1.8817e-06  0:00:01 1625
   376  1.9062e-06  2.9540e-06  1.1402e-06  6.3457e-04  1.8998e-06  0:00:01 1624
   377  1.9550e-06  2.9228e-06  1.0699e-06  6.4417e-04  1.9486e-06  0:00:01 1623
   378  2.0244e-06  2.9425e-06  9.9141e-07  6.5140e-04  2.0181e-06  0:00:01 1622
   379  2.1047e-06  3.0027e-06  9.0661e-07  6.5619e-04  2.0984e-06  0:00:00 1621
   380  2.1870e-06  3.0908e-06  8.1766e-07  6.5843e-04  2.1809e-06  0:05:24 1620
   381  2.2644e-06  3.1938e-06  7.2717e-07  6.5846e-04  2.2586e-06  0:04:19 1619
   382  2.3315e-06  3.3001e-06  6.3835e-07  6.5649e-04  2.3259e-06  0:03:27 1618
   383  2.3843e-06  3.3999e-06  5.5534e-07  6.5312e-04  2.3789e-06  0:02:46 1617
   384  2.4198e-06  3.4856e-06  4.8358e-07  6.4884e-04  2.4147e-06  0:02:13 1616
   385  2.4365e-06  3.5514e-06  4.2989e-07  6.4421e-04  2.4317e-06  0:01:46 1615

  iter  continuity  x-velocity  y-velocity  z-velocity      energy     time/iter
   386  2.4332e-06  3.5932e-06  4.0113e-07  6.4011e-04  2.4287e-06  0:01:25 1614
   387  2.4098e-06  3.6083e-06  4.0072e-07  6.3681e-04  2.4056e-06  0:01:08 1613
   388  2.3665e-06  3.5954e-06  4.2565e-07  6.3459e-04  2.3627e-06  0:00:54 1612
   389  2.3044e-06  3.5541e-06  4.6825e-07  6.3411e-04  2.3008e-06  0:00:43 1611
   390  2.2246e-06  3.4851e-06  5.2033e-07  6.3606e-04  2.2213e-06  0:00:35 1610
   391  2.1288e-06  3.3900e-06  5.7552e-07  6.4051e-04  2.1258e-06  0:00:28 1609
   392  2.0193e-06  3.2710e-06  6.2944e-07  6.4749e-04  2.0165e-06  0:00:22 1608
   393  1.8984e-06  3.1313e-06  6.7918e-07  6.5697e-04  1.8958e-06  0:00:18 1607
   394  1.7689e-06  2.9746e-06  7.2282e-07  6.6862e-04  1.7665e-06  0:00:14 1606
   395  1.6340e-06  2.8056e-06  7.5911e-07  6.8212e-04  1.6318e-06  0:00:11 1605
   396  1.4974e-06  2.6297e-06  7.8725e-07  6.9714e-04  1.4953e-06  0:00:09 1604

  iter  continuity  x-velocity  y-velocity  z-velocity      energy     time/iter
   397  1.3634e-06  2.4530e-06  8.0680e-07  7.1307e-04  1.3614e-06  0:00:07 1603
   398  1.2368e-06  2.2829e-06  8.1758e-07  7.2953e-04  1.2347e-06  0:00:06 1602
   399  1.1231e-06  2.1272e-06  8.1961e-07  7.4628e-04  1.1210e-06  0:00:05 1601
   400  1.0285e-06  1.9942e-06  8.1310e-07  7.6352e-04  1.0262e-06  0:00:04 1600
   401  9.5885e-07  1.8920e-06  7.9842e-07  7.8099e-04  9.5631e-07  0:00:03 1599
   402  9.1840e-07  1.8269e-06  7.7606e-07  7.9855e-04  9.1568e-07  0:00:02 1598
   403  9.0829e-07  1.8019e-06  7.4664e-07  8.1599e-04  9.0542e-07  0:00:02 1597
   404  9.2559e-07  1.8155e-06  7.1087e-07  8.3347e-04  9.2264e-07  0:00:02 1596
   405  9.6422e-07  1.8625e-06  6.6957e-07  8.5123e-04  9.6127e-07  0:00:01 1595
   406  1.0169e-06  1.9347e-06  6.2363e-07  8.6901e-04  1.0139e-06  0:00:01 1594
   407  1.0765e-06  2.0230e-06  5.7407e-07  8.8690e-04  1.0737e-06  0:00:01 1593

  iter  continuity  x-velocity  y-velocity  z-velocity      energy     time/iter
   408  1.1375e-06  2.1189e-06  5.2199e-07  9.0496e-04  1.1348e-06  0:00:01 1592
   409  1.1954e-06  2.2151e-06  4.6864e-07  9.2314e-04  1.1928e-06  0:00:00 1591
   410  1.2469e-06  2.3055e-06  4.1546e-07  9.4143e-04  1.2445e-06  0:00:00 1590
   411  1.2898e-06  2.3853e-06  3.6420e-07  9.6009e-04  1.2874e-06  0:00:00 1589
   412  1.3224e-06  2.4512e-06  3.1706e-07  9.7899e-04  1.3202e-06  0:00:00 1588
   413  1.3437e-06  2.5005e-06  2.7682e-07  9.9825e-04  1.3417e-06  0:00:00 1587
   414  1.3533e-06  2.5315e-06  2.4683e-07  1.0178e-03  1.3515e-06  0:05:17 1586
   415  1.3510e-06  2.5434e-06  2.3028e-07  1.0377e-03  1.3493e-06  0:04:14 1585
   416  1.3368e-06  2.5356e-06  2.2855e-07  1.0578e-03  1.3352e-06  0:03:23 1584
   417  1.3112e-06  2.5083e-06  2.3998e-07  1.0782e-03  1.3098e-06  0:02:42 1583
   418  1.2747e-06  2.4622e-06  2.6069e-07  1.0987e-03  1.2735e-06  0:02:10 1582

  iter  continuity  x-velocity  y-velocity  z-velocity      energy     time/iter
   419  1.2283e-06  2.3984e-06  2.8650e-07  1.1194e-03  1.2271e-06  0:01:44 1581
   420  1.1727e-06  2.3181e-06  3.1411e-07  1.1400e-03  1.1717e-06  0:01:23 1580
   421  1.1092e-06  2.2232e-06  3.4121e-07  1.1606e-03  1.1083e-06  0:01:06 1579
   422  1.0390e-06  2.1158e-06  3.6628e-07  1.1810e-03  1.0382e-06  0:00:53 1578
   423  9.6327e-07  1.9981e-06  3.8832e-07  1.2016e-03  9.6256e-07  0:00:42 1577
   424  8.8363e-07  1.8730e-06  4.0668e-07  1.2219e-03  8.8300e-07  0:00:34 1576
   425  8.0165e-07  1.7434e-06  4.2099e-07  1.2418e-03  8.0107e-07  0:00:27 1575
   426  7.1907e-07  1.6126e-06  4.3103e-07  1.2613e-03  7.1852e-07  0:00:22 1574
   427  6.3790e-07  1.4843e-06  4.3674e-07  1.2805e-03  6.3736e-07  0:00:17 1573
   428  5.6045e-07  1.3626e-06  4.3815e-07  1.2994e-03  5.5988e-07  0:00:14 1572
   429  4.8951e-07  1.2517e-06  4.3539e-07  1.3180e-03  4.8889e-07  0:00:11 1571

  iter  continuity  x-velocity  y-velocity  z-velocity      energy     time/iter
   430  4.2845e-07  1.1563e-06  4.2866e-07  1.3362e-03  4.2773e-07  0:00:09 1570
   431  3.8109e-07  1.0804e-06  4.1823e-07  1.3542e-03  3.8026e-07  0:00:07 1569
   432  3.5099e-07  1.0272e-06  4.0440e-07  1.3722e-03  3.5005e-07  0:00:06 1568
   433  3.3985e-07  9.9791e-07  3.8755e-07  1.3907e-03  3.3884e-07  0:00:05 1567
   434  3.4603e-07  9.9130e-07  3.6808e-07  1.4091e-03  3.4500e-07  0:00:04 1566
   435  3.6504e-07  1.0037e-06  3.4645e-07  1.4278e-03  3.6403e-07  0:00:03 1565
   436  3.9151e-07  1.0302e-06  3.2314e-07  1.4468e-03  3.9056e-07  0:00:02 1564
   437  4.2082e-07  1.0652e-06  2.9868e-07  1.4666e-03  4.1994e-07  0:00:02 1563
   438  4.4956e-07  1.1037e-06  2.7365e-07  1.4871e-03  4.4876e-07  0:00:01 1562
   439  4.7544e-07  1.1417e-06  2.4870e-07  1.5085e-03  4.7471e-07  0:00:01 1561
   440  4.9695e-07  1.1758e-06  2.2453e-07  1.5310e-03  4.9631e-07  0:00:01 1560

  iter  continuity  x-velocity  y-velocity  z-velocity      energy     time/iter
   441  5.1317e-07  1.2036e-06  2.0194e-07  1.5545e-03  5.1260e-07  0:00:01 1559
   442  5.2357e-07  1.2236e-06  1.8186e-07  1.5796e-03  5.2307e-07  0:00:01 1558
   443  5.2790e-07  1.2345e-06  1.6524e-07  1.6060e-03  5.2748e-07  0:00:00 1557
   444  5.2615e-07  1.2360e-06  1.5301e-07  1.6335e-03  5.2580e-07  0:00:00 1556
   445  5.1847e-07  1.2277e-06  1.4578e-07  1.6621e-03  5.1818e-07  0:00:00 1555
   446  5.0514e-07  1.2099e-06  1.4362e-07  1.6919e-03  5.0492e-07  0:05:11 1554
   447  4.8657e-07  1.1831e-06  1.4592e-07  1.7233e-03  4.8641e-07  0:04:09 1553
   448  4.6325e-07  1.1480e-06  1.5156e-07  1.7563e-03  4.6316e-07  0:03:19 1552
   449  4.3575e-07  1.1055e-06  1.5930e-07  1.7907e-03  4.3572e-07  0:02:39 1551
   450  4.0474e-07  1.0567e-06  1.6800e-07  1.8266e-03  4.0476e-07  0:02:07 1550
   451  3.7093e-07  1.0031e-06  1.7675e-07  1.8639e-03  3.7100e-07  0:01:42 1549

  iter  continuity  x-velocity  y-velocity  z-velocity      energy     time/iter
   452  3.3514e-07  9.4605e-07  1.8488e-07  1.9026e-03  3.3525e-07  0:01:21 1548
   453  2.9827e-07  8.8724e-07  1.9192e-07  1.9427e-03  2.9842e-07  0:01:05 1547
   454  2.6138e-07  8.2851e-07  1.9756e-07  1.9840e-03  2.6156e-07  0:00:52 1546
   455  2.2577e-07  7.7181e-07  2.0159e-07  2.0268e-03  2.2597e-07  0:00:42 1545
   456  1.9312e-07  7.1923e-07  2.0391e-07  2.0709e-03  1.9334e-07  0:00:33 1544
   457  1.6568e-07  6.7284e-07  2.0449e-07  2.1169e-03  1.6588e-07  0:00:27 1543
   458  1.4623e-07  6.3460e-07  2.0335e-07  2.1648e-03  1.4638e-07  0:00:21 1542
   459  1.3734e-07  6.0601e-07  2.0055e-07  2.2142e-03  1.3742e-07  0:00:17 1541
   460  1.3964e-07  5.8790e-07  1.9621e-07  2.2652e-03  1.3964e-07  0:00:14 1540
   461  1.5097e-07  5.8014e-07  1.9046e-07  2.3177e-03  1.5089e-07  0:00:11 1539
   462  1.6777e-07  5.8162e-07  1.8348e-07  2.3717e-03  1.6764e-07  0:00:09 1538

  iter  continuity  x-velocity  y-velocity  z-velocity      energy     time/iter
   463  1.8691e-07  5.9053e-07  1.7544e-07  2.4280e-03  1.8674e-07  0:00:07 1537
   464  2.0618e-07  6.0464e-07  1.6655e-07  2.4867e-03  2.0599e-07  0:00:06 1536
   465  2.2419e-07  6.2171e-07  1.5706e-07  2.5471e-03  2.2399e-07  0:00:04 1535
   466  2.4007e-07  6.3971e-07  1.4719e-07  2.6091e-03  2.3986e-07  0:00:04 1534
   467  2.5326e-07  6.5695e-07  1.3722e-07  2.6726e-03  2.5306e-07  0:00:03 1533
   468  2.6346e-07  6.7210e-07  1.2742e-07  2.7372e-03  2.6326e-07  0:00:02 1532
   469  2.7063e-07  6.8478e-07  1.1811e-07  2.8037e-03  2.7043e-07  0:00:02 1531
   470  2.7453e-07  6.9333e-07  1.0950e-07  2.8709e-03  2.7435e-07  0:00:01 1530
   471  2.7521e-07  6.9745e-07  1.0189e-07  2.9391e-03  2.7504e-07  0:00:01 1529
   472  2.7278e-07  6.9704e-07  9.5531e-08  3.0087e-03  2.7262e-07  0:00:01 1528
   473  2.6742e-07  6.9216e-07  9.0635e-08  3.0798e-03  2.6728e-07  0:05:06 1527

  iter  continuity  x-velocity  y-velocity  z-velocity      energy     time/iter
   474  2.5936e-07  6.8297e-07  8.7281e-08  3.1524e-03  2.5922e-07  0:04:05 1526
   475  2.4885e-07  6.6977e-07  8.5413e-08  3.2268e-03  2.4872e-07  0:03:16 1525
   476  2.3620e-07  6.5292e-07  8.4842e-08  3.3028e-03  2.3609e-07  0:02:36 1524
   477  2.2176e-07  6.3293e-07  8.5287e-08  3.3811e-03  2.2166e-07  0:02:05 1523
   478  2.0591e-07  6.1037e-07  8.6422e-08  3.4624e-03  2.0582e-07  0:01:40 1522
   479  1.8909e-07  5.8589e-07  8.7926e-08  3.5458e-03  1.8901e-07  0:01:20 1521
   480  1.7178e-07  5.6024e-07  8.9517e-08  3.6314e-03  1.7170e-07  0:01:04 1520
   481  1.5452e-07  5.3419e-07  9.0967e-08  3.7210e-03  1.5444e-07  0:00:51 1519
   482  1.3794e-07  5.0855e-07  9.2098e-08  3.8148e-03  1.3787e-07  0:00:41 1518
   483  1.2280e-07  4.8414e-07  9.2786e-08  3.9107e-03  1.2272e-07  0:00:33 1517
   484  1.0994e-07  4.6176e-07  9.2952e-08  4.0079e-03  1.0985e-07  0:00:26 1516

  iter  continuity  x-velocity  y-velocity  z-velocity      energy     time/iter
   485  1.0027e-07  4.4212e-07  9.2555e-08  4.1080e-03  1.0017e-07  0:00:21 1515
   486  9.4528e-08  4.2580e-07  9.1590e-08  4.2097e-03  9.4421e-08  0:00:17 1514
   487  9.2988e-08  4.1320e-07  9.0078e-08  4.3133e-03  9.2870e-08  0:00:13 1513
   488  9.5224e-08  4.0446e-07  8.8061e-08  4.4197e-03  9.5099e-08  0:00:11 1512
   489  1.0028e-07  3.9948e-07  8.5602e-08  4.5302e-03  1.0015e-07  0:00:09 1511
   490  1.0703e-07  3.9790e-07  8.2780e-08  4.6499e-03  1.0690e-07  0:00:07 1510
   491  1.1448e-07  3.9916e-07  7.9688e-08  4.7724e-03  1.1435e-07  0:00:05 1509
   492  1.2187e-07  4.0262e-07  7.6428e-08  4.8994e-03  1.2174e-07  0:00:04 1508
   493  1.2867e-07  4.0759e-07  7.3112e-08  5.0279e-03  1.2854e-07  0:00:03 1507
   494  1.3449e-07  4.1340e-07  6.9853e-08  5.1590e-03  1.3437e-07  0:00:03 1506
   495  1.3912e-07  4.1949e-07  6.6764e-08  5.2940e-03  1.3900e-07  0:00:02 1505

  iter  continuity  x-velocity  y-velocity  z-velocity      energy     time/iter
   496  1.4242e-07  4.2539e-07  6.3948e-08  5.4337e-03  1.4229e-07  0:00:02 1504
   497  1.4431e-07  4.3076e-07  6.1502e-08  5.5978e-03  1.4418e-07  0:00:01 1503
   498  1.4479e-07  4.3536e-07  5.9487e-08  5.7829e-03  1.4467e-07  0:00:01 1502
   499  1.4393e-07  4.3908e-07  5.7939e-08  5.9598e-03  1.4380e-07  0:00:01 1501
   500  1.4179e-07  4.4189e-07  5.6867e-08  6.1475e-03  1.4166e-07  0:00:01 1500
   501  1.3852e-07  4.4388e-07  5.6242e-08  6.3410e-03  1.3839e-07  0:00:01 1499
   502  1.3427e-07  4.4518e-07  5.6002e-08  6.5385e-03  1.3413e-07  0:00:00 1498
   503  1.2923e-07  4.4602e-07  5.6067e-08  6.7401e-03  1.2908e-07  0:00:00 1497
   504  1.2363e-07  4.4664e-07  5.6345e-08  6.9472e-03  1.2346e-07  0:00:00 1496
   505  1.1771e-07  4.4734e-07  5.6746e-08  7.1680e-03  1.1753e-07  0:00:00 1495
   506  1.1176e-07  4.4844e-07  5.7189e-08  7.4066e-03  1.1156e-07  0:00:00 1494

  iter  continuity  x-velocity  y-velocity  z-velocity      energy     time/iter
   507  1.0607e-07  4.5021e-07  5.7603e-08  7.6516e-03  1.0585e-07  0:00:00 1493
   508  1.0095e-07  4.5294e-07  5.7938e-08  7.9022e-03  1.0070e-07  0:04:59 1492
   509  9.6686e-08  4.5685e-07  5.8159e-08  8.1591e-03  9.6417e-08  0:03:59 1491
   510  9.3539e-08  4.6214e-07  5.8249e-08  8.4241e-03  9.3249e-08  0:03:11 1490
   511  9.1680e-08  4.6891e-07  5.8204e-08  8.6980e-03  9.1374e-08  0:02:33 1489
   512  9.1172e-08  4.7722e-07  5.8037e-08  8.9848e-03  9.0855e-08  0:02:02 1488
   513  9.1946e-08  4.8705e-07  5.7771e-08  9.2875e-03  9.1624e-08  0:01:37 1487
   514  9.3816e-08  4.9827e-07  5.7444e-08  9.5839e-03  9.3496e-08  0:01:18 1486
   515  9.6565e-08  5.1087e-07  5.7102e-08  9.8857e-03  9.6252e-08  0:01:02 1485
   516  9.9911e-08  5.2470e-07  5.6796e-08  1.0193e-02  9.9608e-08  0:00:50 1484
   517  1.0354e-07  5.3942e-07  5.6571e-08  1.0529e-02  1.0325e-07  0:00:40 1483

  iter  continuity  x-velocity  y-velocity  z-velocity      energy     time/iter
   518  1.0727e-07  5.5504e-07  5.6457e-08  1.0866e-02  1.0699e-07  0:00:32 1482
   519  1.1090e-07  5.7147e-07  5.6505e-08  1.1204e-02  1.1064e-07  0:00:25 1481
   520  1.1428e-07  5.8854e-07  5.6760e-08  1.1552e-02  1.1403e-07  0:00:20 1480
   521  1.1729e-07  6.0608e-07  5.7250e-08  1.1913e-02  1.1706e-07  0:00:16 1479
   522  1.1986e-07  6.2401e-07  5.7989e-08  1.2286e-02  1.1963e-07  0:00:13 1478
   523  1.2194e-07  6.4226e-07  5.8973e-08  1.2676e-02  1.2172e-07  0:00:10 1477
   524  1.2352e-07  6.6077e-07  6.0190e-08  1.3084e-02  1.2331e-07  0:00:08 1476
   525  1.2463e-07  6.7955e-07  6.1619e-08  1.3510e-02  1.2442e-07  0:00:07 1475
   526  1.2530e-07  6.9860e-07  6.3230e-08  1.3947e-02  1.2509e-07  0:00:05 1474
   527  1.2561e-07  7.1796e-07  6.4993e-08  1.4397e-02  1.2540e-07  0:00:04 1473
   528  1.2562e-07  7.3767e-07  6.6878e-08  1.4862e-02  1.2541e-07  0:00:03 1472

  iter  continuity  x-velocity  y-velocity  z-velocity      energy     time/iter
   529  1.2545e-07  7.5779e-07  6.8855e-08  1.5341e-02  1.2523e-07  0:00:03 1471
   530  1.2518e-07  7.7839e-07  7.0898e-08  1.5837e-02  1.2496e-07  0:00:02 1470
   531  1.2493e-07  7.9953e-07  7.2987e-08  1.6351e-02  1.2469e-07  0:00:02 1469
   532  1.2480e-07  8.2128e-07  7.5104e-08  1.6879e-02  1.2455e-07  0:00:01 1468
   533  1.2489e-07  8.4371e-07  7.7227e-08  1.7426e-02  1.2463e-07  0:00:01 1467
   534  1.2529e-07  8.6688e-07  7.9360e-08  1.7993e-02  1.2502e-07  0:00:01 1466
   535  1.2608e-07  8.9082e-07  8.1517e-08  1.8580e-02  1.2579e-07  0:00:01 1465
   536  1.2729e-07  9.1559e-07  8.3697e-08  1.9190e-02  1.2699e-07  0:00:01 1464
   537  1.2895e-07  9.4120e-07  8.5914e-08  1.9824e-02  1.2864e-07  0:00:00 1463
   538  1.3108e-07  9.6767e-07  8.8168e-08  2.0477e-02  1.3075e-07  0:00:00 1462
   539  1.3364e-07  9.9501e-07  9.0464e-08  2.1148e-02  1.3329e-07  0:00:00 1461

  iter  continuity  x-velocity  y-velocity  z-velocity      energy     time/iter
   540  1.3659e-07  1.0232e-06  9.2813e-08  2.1834e-02  1.3624e-07  0:00:00 1460
   541  1.3990e-07  1.0523e-06  9.5229e-08  2.2538e-02  1.3954e-07  0:00:00 1459
   542  1.4351e-07  1.0821e-06  9.7722e-08  2.3259e-02  1.4313e-07  0:00:00 1458
   543  1.4734e-07  1.1128e-06  1.0030e-07  2.3997e-02  1.4696e-07  0:00:00 1457
   544  1.5135e-07  1.1443e-06  1.0298e-07  2.4749e-02  1.5096e-07  0:04:51 1456
   545  1.5557e-07  1.1773e-06  1.0562e-07  2.5517e-02  1.5518e-07  0:03:53 1455
   546  1.7025e-07  1.2396e-06  1.0733e-07  2.6143e-02  1.6989e-07  0:03:06 1454
   547  1.8616e-07  1.3144e-06  1.0943e-07  2.6380e-02  1.8582e-07  0:02:29 1453
   548  2.0684e-07  1.4180e-06  1.1323e-07  2.7398e-02  2.0654e-07  0:01:59 1452
   549  2.2883e-07  1.5406e-06  1.1747e-07  2.7794e-02  2.2855e-07  0:01:35 1451
   550  2.4962e-07  1.6773e-06  1.2411e-07  2.8887e-02  2.4935e-07  0:01:16 1450

  iter  continuity  x-velocity  y-velocity  z-velocity      energy     time/iter
   551  2.5288e-07  1.7301e-06  1.3142e-07  3.1005e-02  2.5266e-07  0:01:01 1449
   552  2.6720e-07  1.8116e-06  1.3651e-07  3.3886e-02  2.6701e-07  0:00:49 1448
   553  2.7566e-07  1.8558e-06  1.4634e-07  3.7209e-02  2.7549e-07  0:00:39 1447
   554  2.9203e-07  1.9347e-06  1.5775e-07  4.1726e-02  2.9183e-07  0:00:31 1446
   555  3.0550e-07  2.0215e-06  1.7138e-07  4.5907e-02  3.0526e-07  0:00:25 1445
   556  3.1724e-07  2.1138e-06  1.8283e-07  4.8724e-02  3.1695e-07  0:00:20 1444
   557  3.2826e-07  2.2094e-06  1.9161e-07  5.0597e-02  3.2793e-07  0:00:16 1443
   558  3.3920e-07  2.3077e-06  1.9864e-07  5.1370e-02  3.3881e-07  0:00:13 1442
   559  3.5032e-07  2.4076e-06  2.0446e-07  5.2520e-02  3.4989e-07  0:00:10 1441
   560  3.6181e-07  2.5096e-06  2.0936e-07  5.3881e-02  3.6135e-07  0:00:08 1440
   561  3.7422e-07  2.6157e-06  2.1358e-07  5.5345e-02  3.7373e-07  0:00:06 1439

  iter  continuity  x-velocity  y-velocity  z-velocity      energy     time/iter
   562  3.7603e-07  2.6888e-06  2.1800e-07  5.6211e-02  3.7552e-07  0:00:05 1438
   563  3.5670e-07  2.6857e-06  2.2077e-07  5.6448e-02  3.5617e-07  0:00:04 1437
   564  3.3817e-07  2.6657e-06  2.1639e-07  5.5535e-02  3.3762e-07  0:00:03 1436
   565  3.0115e-07  2.5778e-06  2.1104e-07  5.4699e-02  3.0057e-07  0:00:03 1435
   566  2.8131e-07  2.5059e-06  2.0096e-07  5.3223e-02  2.8073e-07  0:00:02 1434
   567  2.6793e-07  2.4325e-06  1.9334e-07  5.1933e-02  2.6734e-07  0:00:02 1433
   568  2.5589e-07  2.3514e-06  1.8796e-07  5.0993e-02  2.5531e-07  0:00:01 1432
   569  2.4350e-07  2.2615e-06  1.8305e-07  5.0100e-02  2.4292e-07  0:00:01 1431
   570  2.3040e-07  2.1636e-06  1.7745e-07  4.9110e-02  2.2982e-07  0:00:01 1430
   571  2.1677e-07  2.0592e-06  1.7075e-07  4.7851e-02  2.1619e-07  0:00:01 1429
   572  2.0288e-07  1.9504e-06  1.6299e-07  4.6488e-02  2.0232e-07  0:00:01 1428

  iter  continuity  x-velocity  y-velocity  z-velocity      energy     time/iter
   573  1.8916e-07  1.8389e-06  1.5452e-07  4.4857e-02  1.8861e-07  0:00:00 1427
   574  1.7587e-07  1.7263e-06  1.4560e-07  4.2934e-02  1.7534e-07  0:00:00 1426
   575  1.6321e-07  1.6138e-06  1.3642e-07  4.0826e-02  1.6270e-07  0:00:00 1425
   576  1.5129e-07  1.5028e-06  1.2717e-07  3.8499e-02  1.5081e-07  0:00:00 1424
   577  1.4020e-07  1.3942e-06  1.1802e-07  3.6071e-02  1.3974e-07  0:00:00 1423
   578  1.2995e-07  1.2891e-06  1.0911e-07  3.3684e-02  1.2952e-07  0:00:00 1422
   579  1.2051e-07  1.1883e-06  1.0048e-07  3.1255e-02  1.2010e-07  0:00:00 1421
   580  1.1182e-07  1.0923e-06  9.2249e-08  2.8939e-02  1.1144e-07  0:04:44 1420
   581  1.0379e-07  1.0015e-06  8.4489e-08  2.6659e-02  1.0344e-07  0:03:47 1419
   582  9.6342e-08  9.1651e-07  7.7258e-08  2.4433e-02  9.6021e-08  0:03:02 1418
   583  8.9385e-08  8.3736e-07  7.0591e-08  2.2427e-02  8.9097e-08  0:02:25 1417

  iter  continuity  x-velocity  y-velocity  z-velocity      energy     time/iter
   584  8.2854e-08  7.6420e-07  6.4504e-08  2.0614e-02  8.2601e-08  0:01:56 1416
   585  7.6718e-08  6.9707e-07  5.8999e-08  1.8937e-02  7.6494e-08  0:01:33 1415
   586  7.0968e-08  6.3593e-07  5.4085e-08  1.7337e-02  7.0769e-08  0:01:14 1414
   587  6.5630e-08  5.8066e-07  4.9767e-08  1.5904e-02  6.5450e-08  0:00:59 1413
   588  6.0730e-08  5.3108e-07  4.6002e-08  1.4585e-02  6.0567e-08  0:00:47 1412
   589  5.6317e-08  4.8704e-07  4.2719e-08  1.3346e-02  5.6168e-08  0:00:38 1411
   590  5.2449e-08  4.4824e-07  3.9845e-08  1.2170e-02  5.2311e-08  0:00:30 1410
   591  4.9167e-08  4.1444e-07  3.7310e-08  1.1205e-02  4.9037e-08  0:00:24 1409
   592  4.6496e-08  3.8533e-07  3.5076e-08  1.0362e-02  4.6372e-08  0:00:19 1408
   593  4.4432e-08  3.6060e-07  3.3085e-08  9.6091e-03  4.4312e-08  0:00:15 1407
   594  4.2935e-08  3.3992e-07  3.1286e-08  8.9411e-03  4.2818e-08  0:00:12 1406

  iter  continuity  x-velocity  y-velocity  z-velocity      energy     time/iter
   595  4.1931e-08  3.2294e-07  2.9652e-08  8.3609e-03  4.1816e-08  0:00:10 1405
   596  4.1324e-08  3.0930e-07  2.8171e-08  7.8841e-03  4.1210e-08  0:00:08 1404
   597  4.1016e-08  2.9864e-07  2.6838e-08  7.5098e-03  4.0903e-08  0:00:06 1403
   598  4.0918e-08  2.9060e-07  2.5657e-08  7.2248e-03  4.0804e-08  0:00:05 1402
   599  4.0955e-08  2.8484e-07  2.4632e-08  7.0144e-03  4.0842e-08  0:00:04 1401
   600  4.1060e-08  2.8101e-07  2.3776e-08  6.8885e-03  4.0949e-08  0:00:03 1400
   601  4.1215e-08  2.7887e-07  2.3087e-08  6.8301e-03  4.1106e-08  0:00:03 1399
   602  4.1396e-08  2.7817e-07  2.2575e-08  6.8320e-03  4.1289e-08  0:00:02 1398
   603  4.1578e-08  2.7864e-07  2.2243e-08  6.8401e-03  4.1474e-08  0:00:02 1397
   604  4.1768e-08  2.8013e-07  2.2085e-08  6.8613e-03  4.1668e-08  0:00:01 1396
   605  4.1975e-08  2.8251e-07  2.2092e-08  6.9304e-03  4.1879e-08  0:00:01 1395

  iter  continuity  x-velocity  y-velocity  z-velocity      energy     time/iter
   606  4.2189e-08  2.8564e-07  2.2254e-08  7.0598e-03  4.2097e-08  0:00:01 1394
   607  4.2402e-08  2.8939e-07  2.2555e-08  7.2328e-03  4.2313e-08  0:00:01 1393
   608  4.2609e-08  2.9367e-07  2.2973e-08  7.4411e-03  4.2524e-08  0:00:01 1392
   609  4.2809e-08  2.9842e-07  2.3486e-08  7.6833e-03  4.2727e-08  0:00:00 1391
   610  4.3008e-08  3.0358e-07  2.4075e-08  7.9102e-03  4.2928e-08  0:00:00 1390
   611  4.3193e-08  3.0912e-07  2.4711e-08  8.1338e-03  4.3116e-08  0:00:00 1389
   612  4.3362e-08  3.1503e-07  2.5373e-08  8.3702e-03  4.3286e-08  0:00:00 1388
   613  4.3521e-08  3.2127e-07  2.6056e-08  8.6179e-03  4.3445e-08  0:00:00 1387
   614  4.3682e-08  3.2785e-07  2.6761e-08  8.8736e-03  4.3606e-08  0:04:37 1386
   615  4.3861e-08  3.3478e-07  2.7485e-08  9.1373e-03  4.3784e-08  0:03:42 1385
   616  4.4068e-08  3.4204e-07  2.8226e-08  9.4092e-03  4.3990e-08  0:02:57 1384

  iter  continuity  x-velocity  y-velocity  z-velocity      energy     time/iter
   617  4.4144e-08  3.4976e-07  2.8983e-08  9.4642e-03  4.4064e-08  0:02:22 1383
   618  4.4410e-08  3.5786e-07  2.9667e-08  9.6196e-03  4.4327e-08  0:01:53 1382
   619  4.4793e-08  3.6627e-07  3.0386e-08  9.8015e-03  4.4708e-08  0:01:31 1381
   620  4.5267e-08  3.7500e-07  3.1161e-08  1.0012e-02  4.5179e-08  0:01:12 1380
   621  4.5871e-08  3.8412e-07  3.1969e-08  1.0425e-02  4.5780e-08  0:00:58 1379
   622  4.6603e-08  3.9370e-07  3.2769e-08  1.0943e-02  4.6509e-08  0:00:46 1378
   623  4.7460e-08  4.0378e-07  3.3571e-08  1.1331e-02  4.7362e-08  0:00:37 1377
   624  4.8470e-08  4.1431e-07  3.4424e-08  1.1651e-02  4.8370e-08  0:00:30 1376
   625  4.9634e-08  4.2525e-07  3.5332e-08  1.1970e-02  4.9531e-08  0:00:24 1375
   626  5.0937e-08  4.3663e-07  3.6288e-08  1.2301e-02  5.0831e-08  0:00:19 1374
   627  5.2369e-08  4.4844e-07  3.7288e-08  1.2648e-02  5.2261e-08  0:00:15 1373

  iter  continuity  x-velocity  y-velocity  z-velocity      energy     time/iter
   628  5.3924e-08  4.6070e-07  3.8331e-08  1.3021e-02  5.3813e-08  0:00:12 1372
   629  5.5581e-08  4.7343e-07  3.9423e-08  1.3420e-02  5.5467e-08  0:00:10 1371
   630  5.7325e-08  4.8663e-07  4.0567e-08  1.3832e-02  5.7208e-08  0:00:08 1370
   631  5.9171e-08  5.0030e-07  4.1767e-08  1.4188e-02  5.9051e-08  0:00:06 1369
   632  6.1090e-08  5.1444e-07  4.3043e-08  1.4533e-02  6.0966e-08  0:00:05 1368
   633  6.3056e-08  5.2909e-07  4.4394e-08  1.4890e-02  6.2930e-08  0:00:04 1367
   634  6.5069e-08  5.4425e-07  4.5810e-08  1.5285e-02  6.4938e-08  0:00:03 1366
   635  6.7125e-08  5.5994e-07  4.7289e-08  1.5733e-02  6.6991e-08  0:00:03 1365
   636  6.9222e-08  5.7615e-07  4.8830e-08  1.6202e-02  6.9084e-08  0:00:02 1364
   637  7.1353e-08  5.9289e-07  5.0435e-08  1.6687e-02  7.1211e-08  0:00:02 1363
   638  7.3521e-08  6.1019e-07  5.2102e-08  1.7191e-02  7.3375e-08  0:00:01 1362

  iter  continuity  x-velocity  y-velocity  z-velocity      energy     time/iter
   639  7.5729e-08  6.2803e-07  5.3829e-08  1.7721e-02  7.5578e-08  0:00:01 1361
   640  7.7969e-08  6.4641e-07  5.5589e-08  1.8248e-02  7.7813e-08  0:00:01 1360
   641  8.0276e-08  6.6534e-07  5.7415e-08  1.8746e-02  8.0115e-08  0:00:01 1359
   642  8.2670e-08  6.8483e-07  5.9323e-08  1.9200e-02  8.2504e-08  0:00:01 1358
   643  8.5141e-08  7.0486e-07  6.1329e-08  1.9548e-02  8.4970e-08  0:00:00 1357
   644  8.7731e-08  7.2543e-07  6.3429e-08  1.9858e-02  8.7554e-08  0:00:00 1356
   645  9.0414e-08  7.4649e-07  6.5650e-08  2.0157e-02  9.0232e-08  0:00:00 1355
   646  9.3189e-08  7.6815e-07  6.7989e-08  2.0501e-02  9.3000e-08  0:00:00 1354
   647  9.6065e-08  7.9041e-07  7.0433e-08  2.0926e-02  9.5870e-08  0:00:00 1353
   648  9.9007e-08  8.1320e-07  7.2960e-08  2.1445e-02  9.8805e-08  0:00:00 1352
   649  1.0187e-07  8.3658e-07  7.5537e-08  2.2463e-02  1.0166e-07  0:00:00 1351

  iter  continuity  x-velocity  y-velocity  z-velocity      energy     time/iter
   650  1.0473e-07  8.6048e-07  7.7980e-08  2.3467e-02  1.0451e-07  0:04:30 1350
   651  1.0767e-07  8.8494e-07  8.0359e-08  2.4402e-02  1.0745e-07  0:03:36 1349
   652  1.1078e-07  9.0993e-07  8.2743e-08  2.5286e-02  1.1055e-07  0:02:53 1348
   653  1.2081e-07  9.5562e-07  8.4369e-08  2.6147e-02  1.2059e-07  0:02:18 1347
   654  1.4409e-07  1.0407e-06  8.4086e-08  2.5663e-02  1.4390e-07  0:01:50 1346
   655  1.6398e-07  1.1331e-06  8.6554e-08  2.4708e-02  1.6380e-07  0:01:28 1345
   656  1.8115e-07  1.2331e-06  9.1718e-08  2.4571e-02  1.8098e-07  0:01:10 1344
   657  1.8028e-07  1.2603e-06  9.7202e-08  2.5506e-02  1.8014e-07  0:00:56 1343
   658  1.8426e-07  1.2680e-06  9.8337e-08  2.7383e-02  1.8416e-07  0:00:45 1342
   659  1.9814e-07  1.3169e-06  1.0420e-07  3.0926e-02  1.9803e-07  0:00:36 1341
   660  2.0920e-07  1.3759e-06  1.1710e-07  3.5370e-02  2.0906e-07  0:00:29 1340

  iter  continuity  x-velocity  y-velocity  z-velocity      energy     time/iter
   661  2.1716e-07  1.4385e-06  1.2868e-07  3.9851e-02  2.1698e-07  0:00:23 1339
   662  2.2349e-07  1.5028e-06  1.3697e-07  4.4244e-02  2.2328e-07  0:00:18 1338
   663  2.3023e-07  1.5707e-06  1.4215e-07  4.8258e-02  2.2999e-07  0:00:15 1337
   664  2.3689e-07  1.6413e-06  1.4495e-07  5.2199e-02  2.3662e-07  0:00:12 1336
   665  2.4595e-07  1.7197e-06  1.4614e-07  5.5363e-02  2.4565e-07  0:00:09 1335
   666  2.5604e-07  1.8031e-06  1.4714e-07  5.9467e-02  2.5573e-07  0:00:08 1334
   667  2.6829e-07  1.8914e-06  1.4816e-07  6.1301e-02  2.6797e-07  0:00:06 1333
   668  2.3909e-07  1.8569e-06  1.5179e-07  5.6353e-02  2.3873e-07  0:00:05 1332
   669  2.1423e-07  1.8059e-06  1.4686e-07  4.9168e-02  2.1386e-07  0:00:04 1331
   670  2.0257e-07  1.7680e-06  1.4039e-07  4.3883e-02  2.0219e-07  0:00:03 1330
   671  1.9523e-07  1.7297e-06  1.3753e-07  4.0356e-02  1.9484e-07  0:00:02 1329

  iter  continuity  x-velocity  y-velocity  z-velocity      energy     time/iter
   672  1.8845e-07  1.6855e-06  1.3695e-07  3.8023e-02  1.8805e-07  0:00:02 1328
   673  1.8095e-07  1.6340e-06  1.3662e-07  3.6178e-02  1.8055e-07  0:00:02 1327
   674  1.7243e-07  1.5753e-06  1.3536e-07  3.4898e-02  1.7202e-07  0:00:01 1326
   675  1.6305e-07  1.5105e-06  1.3282e-07  3.3862e-02  1.6264e-07  0:00:01 1325
   676  1.5314e-07  1.4408e-06  1.2898e-07  3.3130e-02  1.5274e-07  0:00:01 1324
   677  1.4292e-07  1.3676e-06  1.2409e-07  3.2575e-02  1.4252e-07  0:00:01 1323
   678  1.3260e-07  1.2922e-06  1.1846e-07  3.1889e-02  1.3221e-07  0:00:01 1322
   679  1.2246e-07  1.2157e-06  1.1237e-07  3.1107e-02  1.2208e-07  0:00:00 1321
   680  1.1277e-07  1.1393e-06  1.0601e-07  2.9850e-02  1.1240e-07  0:00:00 1320
   681  1.0361e-07  1.0637e-06  9.9483e-08  2.7960e-02  1.0326e-07  0:00:00 1319
   682  9.4978e-08  9.8946e-07  9.2842e-08  2.5750e-02  9.4644e-08  0:04:24 1318

  iter  continuity  x-velocity  y-velocity  z-velocity      energy     time/iter
   683  8.7115e-08  9.1774e-07  8.6220e-08  2.3629e-02  8.6797e-08  0:03:31 1317
   684  7.9959e-08  8.4905e-07  7.9824e-08  2.1739e-02  7.9651e-08  0:02:49 1316
   685  7.3514e-08  7.8363e-07  7.3776e-08  2.0053e-02  7.3213e-08  0:02:15 1315
   686  6.7723e-08  7.2196e-07  6.8000e-08  1.8471e-02  6.7433e-08  0:01:48 1314
   687  6.2494e-08  6.6447e-07  6.2493e-08  1.6730e-02  6.2227e-08  0:01:26 1313
   688  5.7782e-08  6.1123e-07  5.7340e-08  1.5067e-02  5.7543e-08  0:01:09 1312
   689  5.3545e-08  5.6231e-07  5.2575e-08  1.3557e-02  5.3330e-08  0:00:55 1311
   690  4.9782e-08  5.1779e-07  4.8193e-08  1.2174e-02  4.9586e-08  0:00:44 1310
   691  4.6428e-08  4.7756e-07  4.4195e-08  1.0936e-02  4.6248e-08  0:00:35 1309
   692  4.3438e-08  4.4153e-07  4.0582e-08  9.8346e-03  4.3271e-08  0:00:28 1308
   693  4.0786e-08  4.0953e-07  3.7349e-08  8.8538e-03  4.0630e-08  0:00:22 1307

  iter  continuity  x-velocity  y-velocity  z-velocity      energy     time/iter
   694  3.8460e-08  3.8142e-07  3.4488e-08  7.9738e-03  3.8313e-08  0:00:18 1306
   695  3.6440e-08  3.5697e-07  3.1991e-08  7.1850e-03  3.6302e-08  0:00:14 1305
   696  3.4709e-08  3.3594e-07  2.9838e-08  6.4853e-03  3.4578e-08  0:00:11 1304
   697  3.3244e-08  3.1803e-07  2.8005e-08  5.8740e-03  3.3119e-08  0:00:09 1303
   698  3.2021e-08  3.0293e-07  2.6466e-08  5.3422e-03  3.1901e-08  0:00:07 1302
   699  3.1018e-08  2.9036e-07  2.5192e-08  4.8858e-03  3.0903e-08  0:00:06 1301
   700  3.0205e-08  2.8000e-07  2.4153e-08  4.5042e-03  3.0095e-08  0:00:05 1300
   701  2.9551e-08  2.7154e-07  2.3322e-08  4.1919e-03  2.9445e-08  0:00:04 1299
   702  2.9026e-08  2.6469e-07  2.2664e-08  3.9379e-03  2.8923e-08  0:00:03 1298
   703  2.8602e-08  2.5921e-07  2.2151e-08  3.7342e-03  2.8502e-08  0:00:02 1297
   704  2.8255e-08  2.5485e-07  2.1754e-08  3.5716e-03  2.8158e-08  0:00:02 1296

  iter  continuity  x-velocity  y-velocity  z-velocity      energy     time/iter
   705  2.7969e-08  2.5143e-07  2.1454e-08  3.4424e-03  2.7873e-08  0:00:02 1295
   706  2.7731e-08  2.4878e-07  2.1230e-08  3.3393e-03  2.7637e-08  0:00:01 1294
   707  2.7531e-08  2.4675e-07  2.1066e-08  3.2567e-03  2.7439e-08  0:00:01 1293
   708  2.7363e-08  2.4522e-07  2.0949e-08  3.1858e-03  2.7272e-08  0:00:01 1292
   709  2.7222e-08  2.4410e-07  2.0868e-08  3.1242e-03  2.7132e-08  0:00:01 1291
   710  2.7106e-08  2.4331e-07  2.0813e-08  3.0713e-03  2.7017e-08  0:00:00 1290
   711  2.7014e-08  2.4278e-07  2.0779e-08  3.0254e-03  2.6927e-08  0:00:00 1289
   712  2.6946e-08  2.4246e-07  2.0761e-08  2.9861e-03  2.6859e-08  0:00:00 1288
   713  2.6897e-08  2.4231e-07  2.0754e-08  2.9512e-03  2.6810e-08  0:00:00 1287
   714  2.6865e-08  2.4228e-07  2.0756e-08  2.9203e-03  2.6780e-08  0:04:17 1286
   715  2.6848e-08  2.4236e-07  2.0765e-08  2.8919e-03  2.6763e-08  0:03:26 1285

  iter  continuity  x-velocity  y-velocity  z-velocity      energy     time/iter
   716  2.6842e-08  2.4251e-07  2.0778e-08  2.8646e-03  2.6756e-08  0:02:44 1284
   717  2.6843e-08  2.4272e-07  2.0796e-08  2.8376e-03  2.6757e-08  0:02:11 1283
   718  2.6848e-08  2.4296e-07  2.0817e-08  2.8112e-03  2.6762e-08  0:01:45 1282
   719  2.6854e-08  2.4322e-07  2.0841e-08  2.7850e-03  2.6768e-08  0:01:24 1281
   720  2.6858e-08  2.4349e-07  2.0867e-08  2.7592e-03  2.6772e-08  0:01:07 1280
   721  2.6859e-08  2.4376e-07  2.0896e-08  2.7335e-03  2.6773e-08  0:00:54 1279
   722  2.6854e-08  2.4400e-07  2.0927e-08  2.7083e-03  2.6768e-08  0:00:43 1278
   723  2.6845e-08  2.4423e-07  2.0960e-08  2.6838e-03  2.6758e-08  0:00:34 1277
   724  2.6841e-08  2.4446e-07  2.0995e-08  2.6394e-03  2.6753e-08  0:00:27 1276
   725  2.6828e-08  2.4463e-07  2.1035e-08  2.6059e-03  2.6740e-08  0:00:22 1275
   726  2.6807e-08  2.4476e-07  2.1076e-08  2.5811e-03  2.6718e-08  0:00:18 1274

  iter  continuity  x-velocity  y-velocity  z-velocity      energy     time/iter
   727  2.6714e-08  2.4475e-07  2.1114e-08  2.5618e-03  2.6625e-08  0:00:14 1273
   728  2.6396e-08  2.4460e-07  2.1145e-08  2.5449e-03  2.6307e-08  0:00:11 1272
   729  2.6222e-08  2.4489e-07  2.1131e-08  2.5231e-03  2.6132e-08  0:00:09 1271
   730  2.6134e-08  2.4533e-07  2.1119e-08  2.5031e-03  2.6043e-08  0:00:07 1270
   731  2.6091e-08  2.4581e-07  2.1119e-08  2.4867e-03  2.6000e-08  0:00:06 1269
   732  2.6074e-08  2.4629e-07  2.1128e-08  2.4731e-03  2.5982e-08  0:00:05 1268
   733  2.6075e-08  2.4675e-07  2.1143e-08  2.4607e-03  2.5983e-08  0:00:04 1267
   734  2.6092e-08  2.4717e-07  2.1165e-08  2.4487e-03  2.5999e-08  0:00:03 1266
   735  2.6125e-08  2.4757e-07  2.1192e-08  2.4371e-03  2.6032e-08  0:00:02 1265
   736  2.6171e-08  2.4794e-07  2.1223e-08  2.4266e-03  2.6078e-08  0:00:02 1264
   737  2.6228e-08  2.4829e-07  2.1257e-08  2.4168e-03  2.6134e-08  0:00:01 1263

  iter  continuity  x-velocity  y-velocity  z-velocity      energy     time/iter
   738  2.6292e-08  2.4860e-07  2.1293e-08  2.4081e-03  2.6197e-08  0:00:01 1262
   739  2.6357e-08  2.4890e-07  2.1331e-08  2.4005e-03  2.6263e-08  0:00:01 1261
   740  2.6422e-08  2.4916e-07  2.1368e-08  2.3941e-03  2.6328e-08  0:00:01 1260
   741  2.6482e-08  2.4940e-07  2.1404e-08  2.3888e-03  2.6388e-08  0:00:01 1259
   742  2.6534e-08  2.4960e-07  2.1438e-08  2.3844e-03  2.6439e-08  0:00:00 1258
   743  2.6570e-08  2.4979e-07  2.1470e-08  2.3807e-03  2.6476e-08  0:00:00 1257
   744  2.6593e-08  2.4995e-07  2.1497e-08  2.3776e-03  2.6499e-08  0:00:00 1256
   745  2.6603e-08  2.5010e-07  2.1521e-08  2.3749e-03  2.6509e-08  0:04:11 1255
   746  2.6603e-08  2.5023e-07  2.1540e-08  2.3726e-03  2.6509e-08  0:03:21 1254
   747  2.6591e-08  2.5035e-07  2.1556e-08  2.3707e-03  2.6498e-08  0:02:41 1253
   748  2.6569e-08  2.5044e-07  2.1569e-08  2.3690e-03  2.6476e-08  0:02:08 1252

  iter  continuity  x-velocity  y-velocity  z-velocity      energy     time/iter
   749  2.6537e-08  2.5052e-07  2.1579e-08  2.3673e-03  2.6444e-08  0:01:43 1251
   750  2.6497e-08  2.5058e-07  2.1586e-08  2.3660e-03  2.6403e-08  0:01:22 1250
   751  2.6448e-08  2.5063e-07  2.1591e-08  2.3649e-03  2.6355e-08  0:01:06 1249
   752  2.6393e-08  2.5066e-07  2.1593e-08  2.3643e-03  2.6299e-08  0:00:52 1248
   753  2.6332e-08  2.5066e-07  2.1593e-08  2.3680e-03  2.6239e-08  0:00:42 1247
   754  2.6266e-08  2.5065e-07  2.1591e-08  2.3728e-03  2.6173e-08  0:00:33 1246
   755  2.6198e-08  2.5063e-07  2.1585e-08  2.3757e-03  2.6105e-08  0:00:27 1245
   756  2.6129e-08  2.5058e-07  2.1577e-08  2.3781e-03  2.6035e-08  0:00:21 1244
   757  2.6058e-08  2.5052e-07  2.1567e-08  2.3833e-03  2.5965e-08  0:00:17 1243
   758  2.5988e-08  2.5045e-07  2.1556e-08  2.3884e-03  2.5894e-08  0:00:14 1242
   759  2.5918e-08  2.5036e-07  2.1542e-08  2.3933e-03  2.5825e-08  0:00:11 1241

  iter  continuity  x-velocity  y-velocity  z-velocity      energy     time/iter
   760  2.5849e-08  2.5025e-07  2.1526e-08  2.3980e-03  2.5756e-08  0:00:09 1240
   761  2.5782e-08  2.5012e-07  2.1507e-08  2.4017e-03  2.5689e-08  0:00:07 1239
   762  2.5716e-08  2.4998e-07  2.1485e-08  2.4041e-03  2.5623e-08  0:00:06 1238
   763  2.5650e-08  2.4981e-07  2.1461e-08  2.4074e-03  2.5557e-08  0:00:04 1237
   764  2.5585e-08  2.4963e-07  2.1434e-08  2.4107e-03  2.5492e-08  0:00:04 1236
   765  2.5523e-08  2.4943e-07  2.1415e-08  2.4135e-03  2.5430e-08  0:00:03 1235
   766  2.5463e-08  2.4922e-07  2.1396e-08  2.4161e-03  2.5371e-08  0:00:02 1234
   767  2.5405e-08  2.4898e-07  2.1366e-08  2.4189e-03  2.5313e-08  0:00:02 1233
   768  2.5344e-08  2.4872e-07  2.1330e-08  2.4218e-03  2.5252e-08  0:00:01 1232
   769  2.5281e-08  2.4844e-07  2.1290e-08  2.4248e-03  2.5189e-08  0:00:01 1231
   770  2.5196e-08  2.4811e-07  2.1246e-08  2.4278e-03  2.5104e-08  0:00:01 1230

  iter  continuity  x-velocity  y-velocity  z-velocity      energy     time/iter
   771  2.5111e-08  2.4775e-07  2.1188e-08  2.4290e-03  2.5019e-08  0:00:01 1229
   772  2.5034e-08  2.4739e-07  2.1124e-08  2.4278e-03  2.4943e-08  0:00:01 1228
   773  2.4962e-08  2.4700e-07  2.1064e-08  2.4266e-03  2.4871e-08  0:00:00 1227
   774  2.4889e-08  2.4660e-07  2.1008e-08  2.4264e-03  2.4798e-08  0:00:00 1226
   775  2.4813e-08  2.4617e-07  2.0956e-08  2.4273e-03  2.4723e-08  0:00:00 1225
   776  2.4734e-08  2.4571e-07  2.0903e-08  2.4291e-03  2.4644e-08  0:00:00 1224
   777  2.4652e-08  2.4523e-07  2.0849e-08  2.4316e-03  2.4563e-08  0:00:00 1223
   778  2.4568e-08  2.4472e-07  2.0794e-08  2.4345e-03  2.4479e-08  0:00:00 1222
   779  2.4482e-08  2.4419e-07  2.0736e-08  2.4377e-03  2.4392e-08  0:00:00 1221
   780  2.4393e-08  2.4362e-07  2.0678e-08  2.4409e-03  2.4304e-08  0:04:04 1220
   781  2.4302e-08  2.4303e-07  2.0617e-08  2.4442e-03  2.4213e-08  0:03:15 1219

  iter  continuity  x-velocity  y-velocity  z-velocity      energy     time/iter
   782  2.4209e-08  2.4241e-07  2.0555e-08  2.4475e-03  2.4120e-08  0:02:36 1218
   783  2.4113e-08  2.4177e-07  2.0492e-08  2.4506e-03  2.4025e-08  0:02:05 1217
   784  2.4016e-08  2.4109e-07  2.0426e-08  2.4544e-03  2.3928e-08  0:01:40 1216
   785  2.3916e-08  2.4039e-07  2.0357e-08  2.4578e-03  2.3828e-08  0:01:20 1215
   786  2.3812e-08  2.3966e-07  2.0287e-08  2.4604e-03  2.3726e-08  0:01:04 1214
   787  2.3707e-08  2.3889e-07  2.0214e-08  2.4623e-03  2.3621e-08  0:00:51 1213
   788  2.3599e-08  2.3810e-07  2.0138e-08  2.4639e-03  2.3513e-08  0:00:41 1212
   789  2.3489e-08  2.3728e-07  2.0059e-08  2.4652e-03  2.3403e-08  0:00:33 1211
   790  2.3376e-08  2.3642e-07  1.9978e-08  2.4664e-03  2.3291e-08  0:00:26 1210
   791  2.3261e-08  2.3554e-07  1.9895e-08  2.4665e-03  2.3176e-08  0:00:21 1209
   792  2.3142e-08  2.3463e-07  1.9809e-08  2.4664e-03  2.3058e-08  0:00:17 1208

  iter  continuity  x-velocity  y-velocity  z-velocity      energy     time/iter
   793  2.3020e-08  2.3368e-07  1.9721e-08  2.4654e-03  2.2936e-08  0:00:13 1207
   794  2.2895e-08  2.3270e-07  1.9630e-08  2.4643e-03  2.2812e-08  0:00:11 1206
   795  2.2767e-08  2.3169e-07  1.9536e-08  2.4640e-03  2.2683e-08  0:00:08 1205
   796  2.2635e-08  2.3065e-07  1.9440e-08  2.4640e-03  2.2552e-08  0:00:07 1204
   797  2.2499e-08  2.2958e-07  1.9342e-08  2.4638e-03  2.2416e-08  0:00:05 1203
   798  2.2360e-08  2.2848e-07  1.9243e-08  2.4629e-03  2.2278e-08  0:00:04 1202
   799  2.2218e-08  2.2734e-07  1.9139e-08  2.4610e-03  2.2137e-08  0:00:03 1201
   800  2.2072e-08  2.2617e-07  1.9031e-08  2.4590e-03  2.1991e-08  0:00:03 1200
   801  2.1923e-08  2.2498e-07  1.8921e-08  2.4566e-03  2.1842e-08  0:00:02 1199
   802  2.1770e-08  2.2375e-07  1.8808e-08  2.4538e-03  2.1690e-08  0:00:02 1198
   803  2.1614e-08  2.2248e-07  1.8693e-08  2.4504e-03  2.1535e-08  0:00:01 1197

  iter  continuity  x-velocity  y-velocity  z-velocity      energy     time/iter
   804  2.1455e-08  2.2119e-07  1.8576e-08  2.4465e-03  2.1376e-08  0:00:01 1196
   805  2.1291e-08  2.1986e-07  1.8459e-08  2.4425e-03  2.1213e-08  0:00:01 1195
   806  2.1126e-08  2.1851e-07  1.8336e-08  2.4404e-03  2.1047e-08  0:00:01 1194
   807  2.0957e-08  2.1712e-07  1.8210e-08  2.4372e-03  2.0879e-08  0:00:01 1193
   808  2.0786e-08  2.1571e-07  1.8081e-08  2.4332e-03  2.0708e-08  0:00:00 1192
   809  2.0613e-08  2.1426e-07  1.7950e-08  2.4288e-03  2.0536e-08  0:00:00 1191
[...]

  iter  continuity  x-velocity  y-velocity  z-velocity      energy     time/iter
  1794  9.9378e-14  1.4697e-12  9.3187e-14  1.3320e-08  9.9003e-14  0:00:07  206
  1795  9.7520e-14  1.4422e-12  9.1490e-14  1.3108e-08  9.7156e-14  0:00:06  205
  1796  9.5702e-14  1.4153e-12  8.9795e-14  1.2900e-08  9.5338e-14  0:00:04  204
  1797  9.3911e-14  1.3889e-12  8.8113e-14  1.2698e-08  9.3562e-14  0:00:03  203
  1798  9.2157e-14  1.3629e-12  8.6430e-14  1.2499e-08  9.1814e-14  0:00:03  202
  1799  9.0431e-14  1.3378e-12  8.4855e-14  1.2303e-08  9.0089e-14  0:00:02  201
  1800  8.8776e-14  1.3125e-12  8.3257e-14  1.2110e-08  8.8441e-14  0:00:02  200
  1801  8.7119e-14  1.2881e-12  8.1740e-14  1.1924e-08  8.6782e-14  0:00:01  199
  1802  8.5477e-14  1.2639e-12  8.0195e-14  1.1739e-08  8.5146e-14  0:00:01  198
  1803  8.3893e-14  1.2406e-12  7.8725e-14  1.1559e-08  8.3570e-14  0:00:01  197
  1804  8.2312e-14  1.2177e-12  7.7271e-14  1.1381e-08  8.1997e-14  0:00:01  196

  iter  continuity  x-velocity  y-velocity  z-velocity      energy     time/iter
  1805  8.0784e-14  1.1949e-12  7.5830e-14  1.1205e-08  8.0480e-14  0:00:01  195
  1806  7.9282e-14  1.1724e-12  7.4412e-14  1.1031e-08  7.8981e-14  0:00:00  194
  1807  7.7811e-14  1.1505e-12  7.3001e-14  1.0865e-08  7.7518e-14  0:00:00  193
  1808  7.6321e-14  1.1293e-12  7.1698e-14  1.0701e-08  7.6043e-14  0:00:00  192
  1809  7.4913e-14  1.1082e-12  7.0337e-14  1.0539e-08  7.4630e-14  0:00:00  191
  1810  7.3536e-14  1.0874e-12  6.9019e-14  1.0380e-08  7.3261e-14  0:00:00  190
  1811  7.2167e-14  1.0671e-12  6.7729e-14  1.0224e-08  7.1896e-14  0:00:00  189
  1812  7.0807e-14  1.0472e-12  6.6489e-14  1.0073e-08  7.0531e-14  0:00:00  188
  1813  6.9487e-14  1.0277e-12  6.5271e-14  9.9249e-09  6.9221e-14  0:00:00  187
  1814  6.8193e-14  1.0085e-12  6.4020e-14  9.7785e-09  6.7938e-14  0:00:00  186
  1815  6.6926e-14  9.8954e-13  6.2867e-14  9.6351e-09  6.6670e-14  0:00:00  185

  iter  continuity  x-velocity  y-velocity  z-velocity      energy     time/iter
  1816  6.5687e-14  9.7116e-13  6.1683e-14  9.4922e-09  6.5437e-14  0:00:00  184
  1817  6.4441e-14  9.5307e-13  6.0507e-14  9.3538e-09  6.4191e-14  0:00:00  183
  1818  6.3253e-14  9.3533e-13  5.9423e-14  9.2179e-09  6.3021e-14  0:00:36  182
  1819  6.2065e-14  9.1807e-13  5.8303e-14  9.0838e-09  6.1837e-14  0:00:29  181
  1820  6.0926e-14  9.0089e-13  5.7242e-14  8.9514e-09  6.0700e-14  0:00:23  180
  1821  5.9773e-14  8.8410e-13  5.6167e-14  8.8210e-09  5.9552e-14  0:00:18  179
  1822  5.8654e-14  8.6741e-13  5.5064e-14  8.6947e-09  5.8438e-14  0:00:15  178
  1823  5.7565e-14  8.5110e-13  5.4100e-14  8.5711e-09  5.7354e-14  0:00:12  177
  1824  5.6477e-14  8.3544e-13  5.3081e-14  8.4512e-09  5.6262e-14  0:00:09  176
  1825  5.5432e-14  8.1984e-13  5.2119e-14  8.3317e-09  5.5223e-14  0:00:07  175
  1826  5.4397e-14  8.0453e-13  5.1097e-14  8.2151e-09  5.4182e-14  0:00:06  174

  iter  continuity  x-velocity  y-velocity  z-velocity      energy     time/iter
  1827  5.3401e-14  7.8975e-13  5.0251e-14  8.1003e-09  5.3192e-14  0:00:05  173
  1828  5.2407e-14  7.7479e-13  4.9245e-14  7.9873e-09  5.2214e-14  0:00:04  172
  1829  5.1419e-14  7.6038e-13  4.8315e-14  7.8784e-09  5.1225e-14  0:00:03  171
  1830  5.0449e-14  7.4653e-13  4.7499e-14  7.7708e-09  5.0263e-14  0:00:02  170
  1831  4.9531e-14  7.3211e-13  4.6558e-14  7.6658e-09  4.9345e-14  0:00:02  169
  1832  4.8580e-14  7.1879e-13  4.5707e-14  7.5628e-09  4.8408e-14  0:00:01  168
  1833  4.7685e-14  7.0515e-13  4.4848e-14  7.4604e-09  4.7508e-14  0:00:01  167
  1834  4.6798e-14  6.9190e-13  4.3965e-14  7.3595e-09  4.6631e-14  0:00:01  166
  1835  4.5934e-14  6.7912e-13  4.3199e-14  7.2611e-09  4.5764e-14  0:00:01  165
  1836  4.5044e-14  6.6656e-13  4.2388e-14  7.1628e-09  4.4876e-14  0:00:01  164
  1837  4.4222e-14  6.5420e-13  4.1600e-14  7.0666e-09  4.4057e-14  0:00:00  163

  iter  continuity  x-velocity  y-velocity  z-velocity      energy     time/iter
  1838  4.3412e-14  6.4189e-13  4.0883e-14  6.9721e-09  4.3248e-14  0:00:00  162
  1839  4.2589e-14  6.2999e-13  4.0124e-14  6.8804e-09  4.2429e-14  0:00:00  161
  1840  4.1812e-14  6.1826e-13  3.9363e-14  6.7900e-09  4.1654e-14  0:00:00  160
  1841  4.1018e-14  6.0706e-13  3.8678e-14  6.7021e-09  4.0863e-14  0:00:00  159
  1842  4.0277e-14  5.9543e-13  3.7879e-14  6.6144e-09  4.0124e-14  0:00:00  158
  1843  3.9525e-14  5.8433e-13  3.7235e-14  6.5280e-09  3.9372e-14  0:00:00  157
  1844  3.8776e-14  5.7365e-13  3.6567e-14  6.4444e-09  3.8631e-14  0:00:00  156
  1845  3.8063e-14  5.6275e-13  3.5850e-14  6.3607e-09  3.7909e-14  0:00:00  155
  1846  3.7349e-14  5.5237e-13  3.5212e-14  6.2811e-09  3.7211e-14  0:00:00  154
  1847  3.6674e-14  5.4198e-13  3.4575e-14  6.2029e-09  3.6533e-14  0:00:00  153
  1848  3.5983e-14  5.3190e-13  3.3946e-14  6.1236e-09  3.5838e-14  0:00:00  152

  iter  continuity  x-velocity  y-velocity  z-velocity      energy     time/iter
  1849  3.5314e-14  5.2221e-13  3.3329e-14  6.0452e-09  3.5175e-14  0:00:00  151
  1850  3.4646e-14  5.1240e-13  3.2710e-14  5.9688e-09  3.4515e-14  0:00:30  150
  1851  3.4010e-14  5.0278e-13  3.2068e-14  5.8921e-09  3.3878e-14  0:00:24  149
  1852  3.3368e-14  4.9334e-13  3.1543e-14  5.8207e-09  3.3237e-14  0:00:19  148
  1853  3.2759e-14  4.8408e-13  3.0919e-14  5.7506e-09  3.2634e-14  0:00:15  147
  1854  3.2167e-14  4.7498e-13  3.0358e-14  5.6802e-09  3.2047e-14  0:00:12  146
  1855  3.1541e-14  4.6636e-13  2.9776e-14  5.6114e-09  3.1424e-14  0:00:10  145
  1856  3.0951e-14  4.5763e-13  2.9265e-14  5.5433e-09  3.0830e-14  0:00:08  144
  1857  3.0382e-14  4.4923e-13  2.8678e-14  5.4754e-09  3.0267e-14  0:00:06  143
  1858  2.9828e-14  4.4075e-13  2.8216e-14  5.4100e-09  2.9715e-14  0:00:05  142
  1859  2.9249e-14  4.3270e-13  2.7685e-14  5.3449e-09  2.9149e-14  0:00:04  141

  iter  continuity  x-velocity  y-velocity  z-velocity      energy     time/iter
  1860  2.8729e-14  4.2460e-13  2.7148e-14  5.2823e-09  2.8609e-14  0:00:03  140
  1861  2.8205e-14  4.1668e-13  2.6660e-14  5.2194e-09  2.8095e-14  0:00:02  139
  1862  2.7690e-14  4.0898e-13  2.6298e-14  5.1584e-09  2.7582e-14  0:00:02  138
  1863  2.7173e-14  4.0119e-13  2.5807e-14  5.0982e-09  2.7068e-14  0:00:02  137
  1864  2.6663e-14  3.9362e-13  2.5364e-14  5.0393e-09  2.6567e-14  0:00:01  136
  1865  2.6166e-14  3.8634e-13  2.4769e-14  4.9813e-09  2.6066e-14  0:00:01  135
  1866  2.5661e-14  3.7934e-13  2.4400e-14  4.9227e-09  2.5561e-14  0:00:01  134
  1867  2.5198e-14  3.7240e-13  2.3958e-14  4.8674e-09  2.5095e-14  0:00:01  133
  1868  2.4739e-14  3.6529e-13  2.3492e-14  4.8108e-09  2.4647e-14  0:00:00  132
  1869  2.4291e-14  3.5834e-13  2.3022e-14  4.7569e-09  2.4196e-14  0:00:00  131
  1870  2.3811e-14  3.5202e-13  2.2578e-14  4.7024e-09  2.3718e-14  0:00:00  130

  iter  continuity  x-velocity  y-velocity  z-velocity      energy     time/iter
  1871  2.3393e-14  3.4500e-13  2.2214e-14  4.6490e-09  2.3303e-14  0:00:00  129
  1872  2.2958e-14  3.3865e-13  2.1921e-14  4.5981e-09  2.2866e-14  0:00:00  128
  1873  2.2534e-14  3.3236e-13  2.1456e-14  4.5466e-09  2.2446e-14  0:00:00  127
  1874  2.2096e-14  3.2630e-13  2.0932e-14  4.4973e-09  2.2009e-14  0:00:00  126
  1875  2.1689e-14  3.2035e-13  2.0790e-14  4.4467e-09  2.1603e-14  0:00:00  125
  1876  2.1326e-14  3.1416e-13  2.0333e-14  4.3973e-09  2.1239e-14  0:00:00  124
  1877  2.0918e-14  3.0857e-13  1.9896e-14  4.3484e-09  2.0826e-14  0:00:00  123
  1878  2.0541e-14  3.0254e-13  1.9656e-14  4.3004e-09  2.0460e-14  0:00:00  122
  1879  2.0147e-14  2.9704e-13  1.9263e-14  4.2548e-09  2.0059e-14  0:00:24  121
  1880  1.9776e-14  2.9160e-13  1.8890e-14  4.2093e-09  1.9701e-14  0:00:19  120
  1881  1.9411e-14  2.8606e-13  1.8580e-14  4.1641e-09  1.9330e-14  0:00:15  119

  iter  continuity  x-velocity  y-velocity  z-velocity      energy     time/iter
  1882  1.9062e-14  2.8079e-13  1.8258e-14  4.1197e-09  1.8990e-14  0:00:12  118
  1883  1.8718e-14  2.7580e-13  1.7851e-14  4.0759e-09  1.8643e-14  0:00:10  117
  1884  1.8362e-14  2.7071e-13  1.7444e-14  4.0329e-09  1.8286e-14  0:00:08  116
  1885  1.8040e-14  2.6543e-13  1.7334e-14  3.9906e-09  1.7967e-14  0:00:06  115
  1886  1.7671e-14  2.6061e-13  1.6953e-14  3.9497e-09  1.7604e-14  0:00:05  114
  1887  1.7387e-14  2.5538e-13  1.6801e-14  3.9074e-09  1.7326e-14  0:00:04  113
  1888  1.7031e-14  2.5119e-13  1.6350e-14  3.8665e-09  1.6964e-14  0:00:03  112
  1889  1.6701e-14  2.4646e-13  1.6017e-14  3.8255e-09  1.6630e-14  0:00:02  111
  1890  1.6435e-14  2.4174e-13  1.5789e-14  3.7862e-09  1.6370e-14  0:00:02  110
  1891  1.6114e-14  2.3716e-13  1.5531e-14  3.7477e-09  1.6036e-14  0:00:02  109
  1892  1.5836e-14  2.3284e-13  1.5261e-14  3.7097e-09  1.5772e-14  0:00:01  108

  iter  continuity  x-velocity  y-velocity  z-velocity      energy     time/iter
  1893  1.5526e-14  2.2857e-13  1.4919e-14  3.6723e-09  1.5459e-14  0:00:01  107
  1894  1.5286e-14  2.2420e-13  1.4768e-14  3.6353e-09  1.5204e-14  0:00:01  106
  1895  1.4992e-14  2.1994e-13  1.4481e-14  3.5988e-09  1.4921e-14  0:00:01  105
  1896  1.4695e-14  2.1610e-13  1.4316e-14  3.5647e-09  1.4630e-14  0:00:00  104
  1897  1.4433e-14  2.1195e-13  1.4180e-14  3.5274e-09  1.4379e-14  0:00:00  103
  1898  1.4172e-14  2.0799e-13  1.3904e-14  3.4918e-09  1.4116e-14  0:00:00  102
  1899  1.3912e-14  2.0421e-13  1.3636e-14  3.4575e-09  1.3860e-14  0:00:00  101
  1900  1.3648e-14  2.0040e-13  1.3275e-14  3.4227e-09  1.3585e-14  0:00:00  100
  1901  1.3408e-14  1.9664e-13  1.3069e-14  3.3891e-09  1.3355e-14  0:00:00   99
  1902  1.3169e-14  1.9315e-13  1.2825e-14  3.3558e-09  1.3117e-14  0:00:00   98
  1903  1.2906e-14  1.8954e-13  1.2725e-14  3.3230e-09  1.2852e-14  0:00:00   97

  iter  continuity  x-velocity  y-velocity  z-velocity      energy     time/iter
  1904  1.2677e-14  1.8586e-13  1.2393e-14  3.2910e-09  1.2619e-14  0:00:00   96
  1905  1.2459e-14  1.8249e-13  1.2182e-14  3.2605e-09  1.2414e-14  0:00:00   95
  1906  1.2237e-14  1.7903e-13  1.1999e-14  3.2290e-09  1.2185e-14  0:00:00   94
  1907  1.2008e-14  1.7580e-13  1.1819e-14  3.1989e-09  1.1958e-14  0:00:00   93
  1908  1.1796e-14  1.7254e-13  1.1678e-14  3.1673e-09  1.1741e-14  0:00:00   92
  1909  1.1555e-14  1.6939e-13  1.1449e-14  3.1372e-09  1.1512e-14  0:00:00   91
  1910  1.1361e-14  1.6594e-13  1.1385e-14  3.1068e-09  1.1316e-14  0:00:00   90
  1911  1.1155e-14  1.6328e-13  1.1263e-14  3.0772e-09  1.1102e-14  0:00:00   89
  1912  1.0968e-14  1.6019e-13  1.1029e-14  3.0474e-09  1.0915e-14  0:00:18   88
  1913  1.0774e-14  1.5724e-13  1.0747e-14  3.0175e-09  1.0729e-14  0:00:14   87
  1914  1.0576e-14  1.5432e-13  1.0657e-14  2.9902e-09  1.0522e-14  0:00:11   86

  iter  continuity  x-velocity  y-velocity  z-velocity      energy     time/iter
  1915  1.0399e-14  1.5163e-13  1.0422e-14  2.9620e-09  1.0349e-14  0:00:09   85
  1916  1.0214e-14  1.4861e-13  1.0294e-14  2.9345e-09  1.0172e-14  0:00:07   84
  1917  1.0054e-14  1.4573e-13  1.0260e-14  2.9075e-09  9.9908e-15  0:00:05   83
  1918  9.8404e-15  1.4311e-13  1.0290e-14  2.8809e-09  9.7867e-15  0:00:04   82
  1919  9.6627e-15  1.4046e-13  9.8060e-15  2.8546e-09  9.6217e-15  0:00:03   81
  1920  9.4900e-15  1.3785e-13  9.5173e-15  2.8288e-09  9.4359e-15  0:00:03   80
  1921  9.3063e-15  1.3543e-13  9.6935e-15  2.8015e-09  9.2808e-15  0:00:02   79
  1922  9.1468e-15  1.3283e-13  9.5501e-15  2.7742e-09  9.1065e-15  0:00:02   78
  1923  8.9638e-15  1.3058e-13  9.2209e-15  2.7481e-09  8.9297e-15  0:00:01   77
  1924  8.8464e-15  1.2804e-13  9.0570e-15  2.7233e-09  8.8128e-15  0:00:01   76
  1925  8.6922e-15  1.2539e-13  8.8794e-15  2.6977e-09  8.6513e-15  0:00:01   75

  iter  continuity  x-velocity  y-velocity  z-velocity      energy     time/iter
  1926  8.5409e-15  1.2329e-13  8.7603e-15  2.6730e-09  8.5017e-15  0:00:01   74
  1927  8.3967e-15  1.2078e-13  8.5068e-15  2.6503e-09  8.3672e-15  0:00:01   73
  1928  8.2331e-15  1.1883e-13  8.3147e-15  2.6265e-09  8.1984e-15  0:00:00   72
  1929  8.0657e-15  1.1682e-13  8.2664e-15  2.6023e-09  8.0350e-15  0:00:00   71
  1930  7.9597e-15  1.1471e-13  8.1836e-15  2.5786e-09  7.9126e-15  0:00:00   70
  1931  7.7968e-15  1.1220e-13  8.2077e-15  2.5547e-09  7.7556e-15  0:00:00   69
  1932  7.6939e-15  1.1029e-13  7.9831e-15  2.5322e-09  7.6556e-15  0:00:00   68
  1933  7.5517e-15  1.0798e-13  7.7580e-15  2.5092e-09  7.5124e-15  0:00:00   67
  1934  7.3996e-15  1.0640e-13  8.0902e-15  2.4860e-09  7.3562e-15  0:00:00   66
  1935  7.2829e-15  1.0438e-13  7.6846e-15  2.4637e-09  7.2367e-15  0:00:00   65
  1936  7.1335e-15  1.0236e-13  7.6078e-15  2.4426e-09  7.0803e-15  0:00:00   64

  iter  continuity  x-velocity  y-velocity  z-velocity      energy     time/iter
  1937  7.0351e-15  1.0023e-13  7.5477e-15  2.4199e-09  6.9892e-15  0:00:00   63
  1938  6.9187e-15  9.8664e-14  7.5192e-15  2.3992e-09  6.8712e-15  0:00:00   62
  1939  6.7866e-15  9.6877e-14  7.1285e-15  2.3785e-09  6.7370e-15  0:00:00   61
  1940  6.6664e-15  9.5193e-14  7.4765e-15  2.3569e-09  6.6224e-15  0:00:00   60
  1941  6.5635e-15  9.3262e-14  7.2216e-15  2.3356e-09  6.5204e-15  0:00:00   59
  1942  6.4559e-15  9.2006e-14  7.1745e-15  2.3155e-09  6.4061e-15  0:00:00   58
  1943  6.3371e-15  9.0084e-14  6.7588e-15  2.2953e-09  6.3140e-15  0:00:11   57
  1944  6.2580e-15  8.8213e-14  6.5034e-15  2.2753e-09  6.2237e-15  0:00:09   56
  1945  6.1520e-15  8.6551e-14  6.9140e-15  2.2547e-09  6.1104e-15  0:00:07   55
  1946  6.0465e-15  8.5052e-14  6.8746e-15  2.2356e-09  6.0044e-15  0:00:06   54
  1947  5.9201e-15  8.3702e-14  6.5172e-15  2.2163e-09  5.9013e-15  0:00:04   53

  iter  continuity  x-velocity  y-velocity  z-velocity      energy     time/iter
  1948  5.8417e-15  8.2385e-14  6.3515e-15  2.1977e-09  5.8111e-15  0:00:03   52
  1949  5.7322e-15  8.0533e-14  6.3689e-15  2.1795e-09  5.7123e-15  0:00:03   51
  1950  5.6734e-15  7.8856e-14  6.5206e-15  2.1609e-09  5.6575e-15  0:00:02   50
  1951  5.5783e-15  7.7673e-14  6.1260e-15  2.1425e-09  5.5421e-15  0:00:02   49
  1952  5.5028e-15  7.6129e-14  6.3702e-15  2.1246e-09  5.4580e-15  0:00:01   48
  1953  5.3884e-15  7.4935e-14  6.2478e-15  2.1056e-09  5.3520e-15  0:00:01   47
  1954  5.3049e-15  7.3516e-14  6.1489e-15  2.0882e-09  5.2637e-15  0:00:01   46
  1955  5.2386e-15  7.2193e-14  6.2043e-15  2.0707e-09  5.2060e-15  0:00:01   45
  1956  5.1499e-15  7.0767e-14  5.9659e-15  2.0529e-09  5.1185e-15  0:00:00   44
  1957  5.0641e-15  6.9777e-14  6.0133e-15  2.0350e-09  5.0153e-15  0:00:00   43
  1958  4.9808e-15  6.8246e-14  5.9523e-15  2.0159e-09  4.9337e-15  0:00:00   42

  iter  continuity  x-velocity  y-velocity  z-velocity      energy     time/iter
  1959  4.9186e-15  6.6959e-14  5.7468e-15  2.0002e-09  4.8833e-15  0:00:00   41
  1960  4.7820e-15  6.6051e-14  5.9736e-15  1.9839e-09  4.7694e-15  0:00:00   40
  1961  4.7296e-15  6.4449e-14  6.0183e-15  1.9671e-09  4.6917e-15  0:00:00   39
  1962  4.6626e-15  6.3540e-14  5.4851e-15  1.9502e-09  4.6556e-15  0:00:00   38
  1963  4.5992e-15  6.2174e-14  5.3066e-15  1.9335e-09  4.5458e-15  0:00:00   37
  1964  4.5139e-15  6.1148e-14  5.5071e-15  1.9182e-09  4.4992e-15  0:00:00   36
  1965  4.4819e-15  6.0078e-14  5.8002e-15  1.9023e-09  4.4361e-15  0:00:00   35
  1966  4.4007e-15  5.9078e-14  5.5798e-15  1.8869e-09  4.3700e-15  0:00:00   34
  1967  4.3017e-15  5.7914e-14  5.5398e-15  1.8710e-09  4.2687e-15  0:00:00   33
  1968  4.2497e-15  5.7061e-14  5.3980e-15  1.8560e-09  4.2363e-15  0:00:00   32
  1969  4.1842e-15  5.5957e-14  5.6955e-15  1.8407e-09  4.1481e-15  0:00:06   31

  iter  continuity  x-velocity  y-velocity  z-velocity      energy     time/iter
  1970  4.1133e-15  5.4631e-14  5.4792e-15  1.8253e-09  4.0899e-15  0:00:05   30
  1971  4.0692e-15  5.3984e-14  5.1678e-15  1.8098e-09  4.0237e-15  0:00:04   29
  1972  4.0348e-15  5.2871e-14  5.5735e-15  1.7951e-09  3.9982e-15  0:00:03   28
  1973  3.9756e-15  5.2005e-14  5.1067e-15  1.7808e-09  3.9167e-15  0:00:02   27
  1974  3.9021e-15  5.1021e-14  5.4707e-15  1.7671e-09  3.8462e-15  0:00:02   26
  1975  3.8685e-15  5.0205e-14  5.0932e-15  1.7524e-09  3.8267e-15  0:00:01   25
  1976  3.7991e-15  4.9136e-14  5.1004e-15  1.7368e-09  3.7560e-15  0:00:01   24
  1977  3.7945e-15  4.8466e-14  5.2238e-15  1.7221e-09  3.7161e-15  0:00:01   23
  1978  3.7110e-15  4.7486e-14  5.1206e-15  1.7082e-09  3.6351e-15  0:00:01   22
  1979  3.6647e-15  4.6449e-14  5.2652e-15  1.6947e-09  3.6272e-15  0:00:00   21
  1980  3.6427e-15  4.5859e-14  4.9774e-15  1.6803e-09  3.5765e-15  0:00:00   20

  iter  continuity  x-velocity  y-velocity  z-velocity      energy     time/iter
  1981  3.5505e-15  4.5023e-14  5.2800e-15  1.6673e-09  3.5088e-15  0:00:00   19
  1982  3.5800e-15  4.4094e-14  5.0191e-15  1.6526e-09  3.4997e-15  0:00:00   18
  1983  3.5044e-15  4.3582e-14  4.9465e-15  1.6388e-09  3.4524e-15  0:00:00   17
  1984  3.4744e-15  4.3059e-14  4.7982e-15  1.6249e-09  3.4237e-15  0:00:00   16
  1985  3.4160e-15  4.2322e-14  4.9420e-15  1.6119e-09  3.3890e-15  0:00:00   15
  1986  3.3683e-15  4.1279e-14  5.0321e-15  1.5989e-09  3.3107e-15  0:00:00   14
  1987  3.2796e-15  4.0578e-14  5.0707e-15  1.5858e-09  3.2732e-15  0:00:00   13
  1988  3.2423e-15  4.0038e-14  4.8610e-15  1.5719e-09  3.2311e-15  0:00:00   12
  1989  3.2263e-15  3.9207e-14  4.6882e-15  1.5594e-09  3.1897e-15  0:00:00   11
  1990  3.2067e-15  3.8769e-14  4.8820e-15  1.5465e-09  3.1773e-15  0:00:00   10
  1991  3.1871e-15  3.7801e-14  4.3159e-15  1.5340e-09  3.1278e-15  0:00:00    9

  iter  continuity  x-velocity  y-velocity  z-velocity      energy     time/iter
  1992  3.1578e-15  3.7165e-14  4.9963e-15  1.5230e-09  3.1005e-15  0:00:00    8
  1993  3.1014e-15  3.6753e-14  4.5357e-15  1.5106e-09  3.0525e-15  0:00:00    7
  1994  3.0434e-15  3.5936e-14  4.5676e-15  1.4988e-09  2.9911e-15  0:00:00    6
  1995  3.0155e-15  3.5219e-14  4.6023e-15  1.4860e-09  2.9764e-15  0:00:00    5
  1996  3.0117e-15  3.4856e-14  4.7238e-15  1.4743e-09  2.9524e-15  0:00:00    4
  1997  2.9530e-15  3.4449e-14  4.5931e-15  1.4620e-09  2.8972e-15  0:00:00    3
  1998  2.9324e-15  3.3757e-14  4.8892e-15  1.4499e-09  2.8923e-15  0:00:00    2
  1999  2.9324e-15  3.3315e-14  4.5698e-15  1.4371e-09  2.8856e-15  0:00:00    1
  2000  2.9476e-15  3.2591e-14  4.5721e-15  1.4260e-09  2.8973e-15  0:00:00    0

> 
adjoint/                parallel/               server/
define/                 parametric-study/       solve/
display/                plot/                   surface/
exit                    preferences/            turbo-workflow/
file/                   print-license-usage     views/
mesh/                   report/

> /file/write-case-data project1
Fast-loading "C:\PROGRA~1\ANSYSI~1\v231\fluent\fluent23.1.0\\addons\afd\lib\hdfio.bin"
Done.

Writing to Engs-30669:"C:\Users\kebl7595\Desktop\CFD\Runs\Actual Data\0 degree coarse mesh\project1.cas.h5" in NODE0 mode and compression level 1 ...
        7050 cells,     1 zone  ...
       23803 faces,     8 zones ...
        9804 nodes,     1 zone  ...
  Done.
Done.

Writing to Engs-30669:"C:\Users\kebl7595\Desktop\CFD\Runs\Actual Data\0 degree coarse mesh\project1.dat.h5" in NODE0 mode and compression level 1 ...
  Writing results.
Done.

> /file/export/ascii "./surface.dat" wing te () no pressure mach-number quit no

Writing "./surface.dat"...

Writing information to ascii file ...
Done.


> /plot/plot y "data.dat" no n n pressure-coefficient no n x-coordinate wing ()

> 
adjoint/                parallel/               server/
define/                 parametric-study/       solve/
display/                plot/                   surface/
exit                    preferences/            turbo-workflow/
file/                   print-license-usage     views/
mesh/                   report/

> /exit

Posting ANSYS Product Improvement Program performance data 
Done.
Auto-Transcript Stop Time:  13:52:08, 20 May 2024 GMT Daylight Time 
Total Transcript Time: 1 Minute 14 Second.
