Auto-Transcript Start Time:  14:23:28, 20 May 2024 GMT Daylight Time 
Current Directory: "C:\Users\kebl7595\Desktop\CFD\Runs\Actual Data\0 degree coarse mesh"

              Welcome to ANSYS Fluent 2023 R1

              Copyright 1987-2023 ANSYS, Inc. All Rights Reserved.
              Unauthorized use, distribution or duplication is prohibited.
              This product is subject to U.S. laws governing export and re-export.
              For full Legal Notice, see documentation.

Build Time: Nov 28 2022 09:52:02 EST  Build Id: 10208  
 
Connected License Server List:	1055@ansyslic.eng.ox.ac.uk

*********************************************
Info: Your license enables 4-way parallel execution.
For faster simulations, please start the application with the appropriate parallel options.
*********************************************


     --------------------------------------------------------------
     This is an academic version of ANSYS FLUENT. Usage of this product
     license is limited to the terms and conditions specified in your ANSYS
     license form, additional terms section.
     --------------------------------------------------------------
Host spawning Node 0 on machine "Engs-30669" (win64).

------------------------------------------------------------------------------------
ID    Hostname    Core  O.S.         PID    Vendor                                 
------------------------------------------------------------------------------------
n0    Engs-30669  1/32  Windows-x64  29308  13th Gen Intel(R) Core(TM) i9-13900    
host  Engs-30669        Windows-x64  32916  13th Gen Intel(R) Core(TM) i9-13900    

MPI Option Selected: intel
------------------------------------------------------------------------------------

Cleanup script file is C:\\Users\\kebl7595\\Desktop\\CFD\\Runs\\Actual Data\\0 degree coarse mesh\\cleanup-fluent-Engs-30669-32916.bat
QA Service Message :
QA Services Agreement Enabled. This application is included in the scope of an ANSYS QA Services Agreement.
Posting ANSYS Product Improvement Program startup data
Done.

Reading journal file C:/Users/kebl7595/Desktop/CFD/Runs/Actual Data/0 degree coarse mesh/project1.jou...

> /file/set-batch-options no no no 

> 
define/                 parametric-study/       solve/
display/                plot/                   surface/
exit                    preferences/            switch-to-meshing-mode
file/                   print-license-usage     turbo-workflow/
mesh/                   report/                 views/
parallel/               server/

> /file/import/cgns/mesh  "./project1.cgns"
Engs-30669 has other FLUENT parallel processes running.                       Process affinity not being set.

Importing "./project1.cgns"

Opening library "C:\\PROGRA~1\\ANSYSI~1\\v231\\fluent\\fluent23.1.0\\vki\\win64\\devtools4.4.6.dll"... done.

Read     9804 nodes
    7050 hexahedral cells, zone  1
    5300 quadrilateral wall faces, zone  2.
   18293 quadrilateral interior faces, zone  3.
     204 quadrilateral interface faces, zone  4.
       6 quadrilateral wall faces, zone  5.

Building...
     mesh
     materials,
     interface,
     domains,
     zones,
	default_exterior-1
	interface-default_subface
	default_interior-1
	default_subface
	default
     parallel,
The automatic selection for flux type has changed to Rhie-Chow: momentum based.

Done.


> 
adjoint/                parallel/               server/
define/                 parametric-study/       solve/
display/                plot/                   surface/
exit                    preferences/            turbo-workflow/
file/                   print-license-usage     views/
mesh/                   report/

> /define/models/solver/density-based-implicit yes

> 
adjoint/                parallel/               server/
define/                 parametric-study/       solve/
display/                plot/                   surface/
exit                    preferences/            turbo-workflow/
file/                   print-license-usage     views/
mesh/                   report/

> /define/models/energy? yes yes invalid command [yes]
yes

> /define/models/viscous/inviscid yes

> 
adjoint/                parallel/               server/
define/                 parametric-study/       solve/
display/                plot/                   surface/
exit                    preferences/            turbo-workflow/
file/                   print-license-usage     views/
mesh/                   report/

> /define/materials/change-create air air air is a fluid
yes 
Density
ideal-gas no data required.

no no no no 

> 
adjoint/                parallel/               server/
define/                 parametric-study/       solve/
display/                plot/                   surface/
exit                    preferences/            turbo-workflow/
file/                   print-license-usage     views/
mesh/                   report/

> /mesh/modify-zones/sep-face-zone-angle 2 90 yes

 2350 faces in contiguous region 0
 168 faces in contiguous region 1
 282 faces in contiguous region 2
 2350 faces in contiguous region 3
 150 faces in contiguous region 4
 Separates zone 2 into 5 zone(s).
Updating new zone information...
   created new zone default_subface:010 from default_subface
   created new zone default_subface:009 from default_subface
   created new zone default_subface:008 from default_subface
   created new zone default_subface:007 from default_subface
done.

> 
adjoint/                parallel/               server/
define/                 parametric-study/       solve/
display/                plot/                   surface/
exit                    preferences/            turbo-workflow/
file/                   print-license-usage     views/
mesh/                   report/

> /define/boundary-conditions/zone-name  5   te

> /define/boundary-conditions/zone-name  7 wing

> /define/boundary-conditions/zone-name  2 sym1

> /define/boundary-conditions/zone-name  9 sym2

> 
adjoint/                parallel/               server/
define/                 parametric-study/       solve/
display/                plot/                   surface/
exit                    preferences/            turbo-workflow/
file/                   print-license-usage     views/
mesh/                   report/

> /define/boundary-conditions/zone-name  8 far1

> /define/boundary-conditions/zone-name 10 far2

> 
adjoint/                parallel/               server/
define/                 parametric-study/       solve/
display/                plot/                   surface/
exit                    preferences/            turbo-workflow/
file/                   print-license-usage     views/
mesh/                   report/

> /define/boundary-conditions/zone-type  8 pressure-far-field

> /define/boundary-conditions/zone-type 10 pressure-far-field

> /define/boundary-conditions/zone-type  2 symmetry

> /define/boundary-conditions/zone-type  9 symmetry

> 
adjoint/                parallel/               server/
define/                 parametric-study/       solve/
display/                plot/                   surface/
exit                    preferences/            turbo-workflow/
file/                   print-license-usage     views/
mesh/                   report/

> /define/boundary-conditions/pressure-far-field (far2 far1)
far1 no 0 no 0.1 no 300 yes no 0.984808 no 0.173648 no 0

> /define/boundary-conditions/pressure-far-field (far2 far1)
far2 no 0 no 0.1 no 300 yes no 0.984808 no 0.173648 no 0

> 
adjoint/                parallel/               server/
define/                 parametric-study/       solve/
display/                plot/                   surface/
exit                    preferences/            turbo-workflow/
file/                   print-license-usage     views/
mesh/                   report/

> /solve/initialize/compute-defaults/pressure-far-field (far2 far1)
far1

> /solve/initialize/initialize-flow

> 
adjoint/                parallel/               server/
define/                 parametric-study/       solve/
display/                plot/                   surface/
exit                    preferences/            turbo-workflow/
file/                   print-license-usage     views/
mesh/                   report/

> /solve/monitors/residual/convergence-criteria 1.e-9 1.e-9 1.e-9 1.e-9 1.e-9

> /solve/iterate 2000

  iter  continuity  x-velocity  y-velocity  z-velocity      energy     time/iter
     1  1.0000e+00  1.0000e+00  1.0000e+00  0.0000e+00  1.0000e+00  0:00:00 1999
     2  5.5862e-01  5.4547e-01  4.4503e-01  1.0000e+00  5.5864e-01  0:33:18 1998
     3  2.7879e-01  2.8514e-01  2.8494e-01  8.4390e-01  2.7860e-01  0:26:38 1997
     4  1.4997e-01  2.0763e-01  1.8804e-01  7.1730e-01  1.4977e-01  0:21:17 1996
     5  1.2088e-01  1.6639e-01  1.2264e-01  8.6417e-01  1.2088e-01  0:17:01 1995
     6  1.1157e-01  1.2979e-01  8.7402e-02  1.0084e+00  1.1164e-01  0:13:37 1994
     7  9.9530e-02  1.0263e-01  7.0760e-02  1.0199e+00  9.9563e-02  0:10:53 1993
     8  8.8627e-02  8.4464e-02  5.7108e-02  9.6850e-01  8.8597e-02  0:08:42 1992
     9  7.9749e-02  7.2781e-02  4.7582e-02  8.9147e-01  7.9671e-02  0:06:58 1991
    10  7.2811e-02  6.7292e-02  4.3012e-02  8.1698e-01  7.2704e-02  0:05:34 1990
    11  6.7437e-02  6.3823e-02  4.0854e-02  7.5723e-01  6.7317e-02  0:04:27 1989

  iter  continuity  x-velocity  y-velocity  z-velocity      energy     time/iter
    12  6.3091e-02  6.0804e-02  3.9941e-02  7.3673e-01  6.2964e-02  0:03:33 1988
    13  5.9182e-02  5.8524e-02  4.0469e-02  7.7789e-01  5.9052e-02  0:02:51 1987
    14  5.5106e-02  5.6631e-02  4.2477e-02  8.4660e-01  5.4974e-02  0:02:16 1986
    15  5.0479e-02  5.4459e-02  3.6561e-02  9.5539e-01  5.0346e-02  0:01:49 1985
    16  4.6494e-02  5.2461e-02  3.0731e-02  1.0836e+00  4.6361e-02  0:01:27 1984
    17  4.2937e-02  5.0782e-02  2.8994e-02  1.2143e+00  4.2803e-02  0:01:10 1983
    18  3.9342e-02  4.9281e-02  2.8355e-02  1.3368e+00  3.9205e-02  0:00:56 1982
    19  3.5783e-02  4.8050e-02  2.7982e-02  1.4427e+00  3.5644e-02  0:00:45 1981
    20  3.2358e-02  4.6635e-02  2.7074e-02  1.5220e+00  3.2216e-02  0:00:36 1980
    21  2.8606e-02  4.3529e-02  2.6645e-02  1.5672e+00  2.8466e-02  0:00:29 1979
    22  2.5965e-02  4.3108e-02  2.6048e-02  1.5749e+00  2.5827e-02  0:00:23 1978

  iter  continuity  x-velocity  y-velocity  z-velocity      energy     time/iter
    23  2.3926e-02  4.2546e-02  2.4835e-02  1.5408e+00  2.3789e-02  0:06:54 1977
    24  2.2319e-02  4.1985e-02  2.3673e-02  1.4792e+00  2.2186e-02  0:05:31 1976
    25  2.1100e-02  4.1464e-02  2.2385e-02  1.4011e+00  2.0971e-02  0:04:24 1975
    26  1.9770e-02  4.0709e-02  2.1421e-02  1.3238e+00  1.9649e-02  0:03:31 1974
    27  1.8410e-02  3.9695e-02  2.0496e-02  1.2656e+00  1.8298e-02  0:02:49 1973
    28  1.7054e-02  3.8197e-02  1.9526e-02  1.2414e+00  1.6954e-02  0:02:15 1972
    29  1.5776e-02  3.6795e-02  1.8509e-02  1.2596e+00  1.5688e-02  0:01:48 1971
    30  1.4607e-02  3.5421e-02  1.7441e-02  1.3036e+00  1.4533e-02  0:01:26 1970
    31  1.3604e-02  3.3926e-02  1.6302e-02  1.3610e+00  1.3543e-02  0:01:09 1969
    32  1.2708e-02  3.2681e-02  1.5234e-02  1.4111e+00  1.2661e-02  0:00:55 1968
    33  1.1929e-02  3.1630e-02  1.4185e-02  1.4438e+00  1.1894e-02  0:00:44 1967

  iter  continuity  x-velocity  y-velocity  z-velocity      energy     time/iter
    34  1.1306e-02  3.0691e-02  1.3174e-02  1.4643e+00  1.1281e-02  0:00:35 1966
    35  1.0852e-02  2.9813e-02  1.2220e-02  1.4648e+00  1.0834e-02  0:00:28 1965
    36  1.0538e-02  2.9003e-02  1.1361e-02  1.4353e+00  1.0524e-02  0:00:23 1964
    37  1.0333e-02  2.8292e-02  1.0595e-02  1.3739e+00  1.0320e-02  0:00:18 1963
    38  1.0183e-02  2.7652e-02  9.9309e-03  1.3046e+00  1.0170e-02  0:00:14 1962
    39  1.0038e-02  2.7052e-02  9.3701e-03  1.2208e+00  1.0023e-02  0:00:12 1961
    40  9.8782e-03  2.6496e-02  8.9229e-03  1.1433e+00  9.8597e-03  0:00:09 1960
    41  9.6759e-03  2.5971e-02  8.5729e-03  1.0593e+00  9.6537e-03  0:00:07 1959
    42  9.4189e-03  2.5466e-02  8.3098e-03  9.7279e-01  9.3929e-03  0:00:06 1958
    43  9.1198e-03  2.4999e-02  8.1376e-03  8.8506e-01  9.0903e-03  0:00:05 1957
    44  8.7935e-03  2.4577e-02  8.0237e-03  8.0090e-01  8.7609e-03  0:00:04 1956

  iter  continuity  x-velocity  y-velocity  z-velocity      energy     time/iter
    45  8.4506e-03  2.4215e-02  7.9615e-03  7.2186e-01  8.4152e-03  0:00:03 1955
    46  8.1346e-03  2.3912e-02  7.9276e-03  6.5431e-01  8.0968e-03  0:00:02 1954
    47  7.8983e-03  2.3670e-02  7.9118e-03  5.9806e-01  7.8589e-03  0:00:02 1953
    48  7.7653e-03  2.3503e-02  7.9148e-03  5.5435e-01  7.7247e-03  0:00:02 1952
    49  7.7454e-03  2.3431e-02  7.9212e-03  5.2976e-01  7.7040e-03  0:00:01 1951
    50  7.8285e-03  2.3428e-02  7.9377e-03  5.3521e-01  7.7868e-03  0:00:01 1950
    51  8.0095e-03  2.3479e-02  7.9801e-03  5.6941e-01  7.9676e-03  0:00:01 1949
    52  8.2830e-03  2.3601e-02  8.0342e-03  6.2791e-01  8.2409e-03  0:00:01 1948
    53  8.6190e-03  2.3789e-02  8.1367e-03  6.9824e-01  8.5768e-03  0:00:01 1947
    54  9.0053e-03  2.4022e-02  8.2769e-03  7.6879e-01  8.9629e-03  0:00:00 1946
    55  9.1996e-03  2.4219e-02  8.2534e-03  8.3083e-01  9.1565e-03  0:00:00 1945

  iter  continuity  x-velocity  y-velocity  z-velocity      energy     time/iter
    56  9.3876e-03  2.4447e-02  8.2285e-03  8.7960e-01  9.3434e-03  0:00:00 1944
    57  9.6254e-03  2.4721e-02  8.2754e-03  9.1383e-01  9.5801e-03  0:00:00 1943
    58  9.8807e-03  2.5002e-02  8.3393e-03  9.3277e-01  9.8346e-03  0:06:29 1942
    59  1.0218e-02  2.5290e-02  8.4096e-03  9.3389e-01  1.0171e-02  0:05:11 1941
    60  1.0621e-02  2.5534e-02  8.4718e-03  9.1517e-01  1.0574e-02  0:04:08 1940
    61  1.1032e-02  2.5707e-02  8.4994e-03  8.7819e-01  1.0985e-02  0:03:19 1939
    62  1.1565e-02  2.5759e-02  8.4989e-03  8.2613e-01  1.1519e-02  0:02:39 1938
    63  1.2379e-02  2.5777e-02  8.5231e-03  7.6326e-01  1.2333e-02  0:02:07 1937
    64  1.3372e-02  2.5704e-02  8.5485e-03  6.9716e-01  1.3327e-02  0:01:42 1936
    65  1.4510e-02  2.5563e-02  8.5807e-03  6.3565e-01  1.4467e-02  0:01:21 1935
    66  1.5804e-02  2.5378e-02  8.5697e-03  5.9004e-01  1.5763e-02  0:01:05 1934

  iter  continuity  x-velocity  y-velocity  z-velocity      energy     time/iter
    67  1.7043e-02  2.5154e-02  8.5464e-03  5.7018e-01  1.7002e-02  0:00:52 1933
    68  1.8282e-02  2.4984e-02  8.5426e-03  5.8076e-01  1.8243e-02  0:00:42 1932
    69  1.8786e-02  2.4734e-02  8.5830e-03  6.2111e-01  1.8747e-02  0:00:33 1931
    70  1.9191e-02  2.4638e-02  8.7116e-03  6.8738e-01  1.9152e-02  0:00:27 1930
    71  1.9377e-02  2.4491e-02  8.7450e-03  7.6696e-01  1.9339e-02  0:00:21 1929
    72  1.9415e-02  2.4049e-02  8.5634e-03  8.5067e-01  1.9377e-02  0:00:17 1928
    73  1.8580e-02  2.3456e-02  8.4024e-03  9.2954e-01  1.8543e-02  0:00:14 1927
    74  1.6722e-02  2.2875e-02  8.2369e-03  9.9982e-01  1.6684e-02  0:00:11 1926
    75  1.4873e-02  2.1993e-02  8.1052e-03  1.0600e+00  1.4835e-02  0:00:09 1925
    76  1.2813e-02  2.0977e-02  8.0286e-03  1.1065e+00  1.2775e-02  0:00:07 1924
    77  1.1126e-02  1.9803e-02  7.8405e-03  1.1361e+00  1.1088e-02  0:00:06 1923

  iter  continuity  x-velocity  y-velocity  z-velocity      energy     time/iter
    78  1.0517e-02  1.8647e-02  7.5748e-03  1.1477e+00  1.0482e-02  0:00:04 1922
    79  1.0394e-02  1.7582e-02  7.2697e-03  1.1412e+00  1.0363e-02  0:00:04 1921
    80  1.0099e-02  1.6554e-02  7.0231e-03  1.1167e+00  1.0071e-02  0:00:03 1920
    81  1.0089e-02  1.5764e-02  6.7436e-03  1.0765e+00  1.0066e-02  0:00:02 1919
    82  9.6619e-03  1.5118e-02  6.4197e-03  1.0234e+00  9.6408e-03  0:00:02 1918
    83  8.7489e-03  1.4396e-02  6.0767e-03  9.6158e-01  8.7292e-03  0:00:01 1917
    84  7.6472e-03  1.3807e-02  5.7910e-03  8.9544e-01  7.6283e-03  0:00:01 1916
    85  6.7858e-03  1.3435e-02  5.4596e-03  8.2113e-01  6.7679e-03  0:00:01 1915
    86  6.3536e-03  1.3127e-02  5.1231e-03  7.4095e-01  6.3374e-03  0:00:01 1914
    87  6.5475e-03  1.2838e-02  4.8209e-03  6.5662e-01  6.5336e-03  0:00:01 1913
    88  7.5587e-03  1.2782e-02  4.5664e-03  5.7150e-01  7.5477e-03  0:00:00 1912

  iter  continuity  x-velocity  y-velocity  z-velocity      energy     time/iter
    89  9.0790e-03  1.2934e-02  4.3491e-03  4.8892e-01  9.0699e-03  0:00:00 1911
    90  1.0822e-02  1.3254e-02  4.1874e-03  4.1279e-01  1.0814e-02  0:00:00 1910
    91  1.2678e-02  1.3740e-02  4.0807e-03  3.4539e-01  1.2671e-02  0:00:00 1909
    92  1.4637e-02  1.4391e-02  4.0359e-03  2.9278e-01  1.4630e-02  0:00:00 1908
    93  1.7695e-02  1.5326e-02  4.0676e-03  2.6279e-01  1.7687e-02  0:00:00 1907
    94  2.0197e-02  1.6439e-02  4.1574e-03  2.5807e-01  2.0189e-02  0:06:21 1906
    95  2.2100e-02  1.7712e-02  4.3913e-03  2.7556e-01  2.2093e-02  0:05:05 1905
    96  2.3684e-02  1.9296e-02  4.6817e-03  3.0743e-01  2.3676e-02  0:04:04 1904
    97  2.5326e-02  2.1094e-02  5.0502e-03  3.4175e-01  2.5317e-02  0:03:15 1903
    98  2.6747e-02  2.3055e-02  5.5105e-03  3.7442e-01  2.6738e-02  0:02:36 1902
    99  2.8402e-02  2.5112e-02  6.0265e-03  4.0305e-01  2.8392e-02  0:02:05 1901

  iter  continuity  x-velocity  y-velocity  z-velocity      energy     time/iter
   100  2.9808e-02  2.7341e-02  6.5403e-03  4.2729e-01  2.9797e-02  0:01:40 1900
   101  3.1933e-02  2.9788e-02  7.0313e-03  4.4637e-01  3.1921e-02  0:01:20 1899
   102  3.4335e-02  3.2128e-02  7.5239e-03  4.5979e-01  3.4322e-02  0:01:04 1898
   103  3.6138e-02  3.4208e-02  7.9931e-03  4.6739e-01  3.6123e-02  0:00:51 1897
   104  3.7813e-02  3.5983e-02  8.3896e-03  4.6797e-01  3.7797e-02  0:00:41 1896
   105  3.8963e-02  3.7367e-02  8.7712e-03  4.6145e-01  3.8945e-02  0:00:33 1895
   106  3.9199e-02  3.8964e-02  9.1550e-03  4.4949e-01  3.9180e-02  0:00:26 1894
   107  3.8760e-02  4.0569e-02  9.6597e-03  4.3286e-01  3.8740e-02  0:00:21 1893
   108  3.7541e-02  4.2013e-02  9.9565e-03  4.1552e-01  3.7521e-02  0:00:17 1892
   109  3.6693e-02  4.3401e-02  1.0003e-02  4.0158e-01  3.6672e-02  0:00:13 1891
   110  3.6201e-02  4.5138e-02  1.0006e-02  3.9650e-01  3.6178e-02  0:00:11 1890

  iter  continuity  x-velocity  y-velocity  z-velocity      energy     time/iter
   111  3.5595e-02  4.6758e-02  1.0029e-02  3.9773e-01  3.5570e-02  0:00:09 1889
   112  3.4855e-02  4.7753e-02  1.0233e-02  3.9911e-01  3.4829e-02  0:00:07 1888
   113  3.4418e-02  4.7798e-02  1.0528e-02  3.8709e-01  3.4390e-02  0:00:05 1887
   114  3.2821e-02  4.7169e-02  1.0631e-02  3.7482e-01  3.2792e-02  0:00:04 1886
   115  3.0095e-02  4.6097e-02  1.0619e-02  3.7460e-01  3.0065e-02  0:00:03 1885
   116  2.6899e-02  4.5089e-02  1.0706e-02  3.7789e-01  2.6866e-02  0:00:03 1884
   117  2.4566e-02  4.4448e-02  1.0805e-02  3.8596e-01  2.4532e-02  0:00:02 1883
   118  2.3456e-02  4.4283e-02  1.0942e-02  3.8636e-01  2.3419e-02  0:00:02 1882
   119  2.4006e-02  4.3947e-02  1.0990e-02  3.7757e-01  2.3968e-02  0:00:01 1881
   120  2.4985e-02  4.2331e-02  1.1007e-02  3.7184e-01  2.4946e-02  0:00:01 1880
   121  2.5065e-02  4.1064e-02  1.0969e-02  3.6179e-01  2.5026e-02  0:00:01 1879

  iter  continuity  x-velocity  y-velocity  z-velocity      energy     time/iter
   122  2.3464e-02  3.9291e-02  1.1162e-02  3.5076e-01  2.3424e-02  0:00:01 1878
   123  2.1699e-02  3.7043e-02  1.1180e-02  3.3915e-01  2.1659e-02  0:00:01 1877
   124  2.0195e-02  3.4658e-02  1.1104e-02  3.2626e-01  2.0154e-02  0:00:00 1876
   125  1.9353e-02  3.2452e-02  1.1221e-02  3.1430e-01  1.9313e-02  0:00:00 1875
   126  1.9011e-02  3.0088e-02  1.1419e-02  2.9891e-01  1.8972e-02  0:00:00 1874
   127  1.8655e-02  2.7810e-02  1.1478e-02  2.8241e-01  1.8618e-02  0:00:00 1873
   128  1.8328e-02  2.5528e-02  1.1286e-02  2.6657e-01  1.8294e-02  0:00:00 1872
   129  1.8317e-02  2.3731e-02  1.1104e-02  2.5390e-01  1.8286e-02  0:06:14 1871
   130  1.9035e-02  2.2562e-02  1.0948e-02  2.4688e-01  1.9008e-02  0:04:59 1870
   131  1.8752e-02  2.1812e-02  1.0786e-02  2.4417e-01  1.8727e-02  0:03:59 1869
   132  1.8269e-02  2.2057e-02  1.0647e-02  2.4350e-01  1.8247e-02  0:03:11 1868

  iter  continuity  x-velocity  y-velocity  z-velocity      energy     time/iter
   133  1.8404e-02  2.1926e-02  1.0903e-02  2.4472e-01  1.8385e-02  0:02:33 1867
   134  1.9631e-02  2.2070e-02  1.1335e-02  2.4896e-01  1.9615e-02  0:02:02 1866
   135  2.0448e-02  2.2139e-02  1.1481e-02  2.5146e-01  2.0433e-02  0:01:38 1865
   136  2.0816e-02  2.1868e-02  1.1138e-02  2.5067e-01  2.0801e-02  0:01:18 1864
   137  2.0720e-02  2.1759e-02  1.0781e-02  2.4418e-01  2.0707e-02  0:01:03 1863
   138  2.0232e-02  2.1073e-02  1.0452e-02  2.4445e-01  2.0220e-02  0:00:50 1862
   139  1.9709e-02  2.0612e-02  1.0241e-02  2.4327e-01  1.9698e-02  0:00:40 1861
   140  1.8905e-02  1.9984e-02  1.0170e-02  2.4390e-01  1.8894e-02  0:00:32 1860
   141  1.8874e-02  1.9598e-02  9.8284e-03  2.5292e-01  1.8865e-02  0:00:26 1859
   142  1.9522e-02  1.9160e-02  9.4081e-03  2.6547e-01  1.9514e-02  0:00:20 1858
   143  2.0820e-02  1.8565e-02  9.1224e-03  2.8199e-01  2.0814e-02  0:00:16 1857

  iter  continuity  x-velocity  y-velocity  z-velocity      energy     time/iter
   144  2.3052e-02  1.8054e-02  8.7028e-03  2.9940e-01  2.3046e-02  0:00:13 1856
   145  2.4030e-02  1.7762e-02  7.7811e-03  3.1802e-01  2.4025e-02  0:00:10 1855
   146  2.4202e-02  1.7175e-02  7.1025e-03  3.3502e-01  2.4199e-02  0:00:08 1854
   147  2.4279e-02  1.6788e-02  6.6233e-03  3.5125e-01  2.4278e-02  0:00:07 1853
   148  2.4344e-02  1.6661e-02  6.2327e-03  3.6521e-01  2.4344e-02  0:00:05 1852
   149  2.4468e-02  1.6691e-02  5.9944e-03  3.7701e-01  2.4469e-02  0:00:04 1851
   150  2.3979e-02  1.6945e-02  6.0525e-03  3.8529e-01  2.3980e-02  0:00:03 1850
   151  2.3600e-02  1.7277e-02  6.1686e-03  3.9065e-01  2.3601e-02  0:00:03 1849
   152  2.3296e-02  1.7754e-02  5.8682e-03  3.8896e-01  2.3297e-02  0:00:02 1848
   153  2.3957e-02  1.8562e-02  5.9565e-03  3.8320e-01  2.3958e-02  0:00:02 1847
   154  2.3924e-02  1.9268e-02  6.1396e-03  3.7591e-01  2.3923e-02  0:00:01 1846

  iter  continuity  x-velocity  y-velocity  z-velocity      energy     time/iter
   155  2.3641e-02  1.9767e-02  6.4054e-03  3.6306e-01  2.3641e-02  0:00:01 1845
   156  2.2626e-02  1.9697e-02  6.7108e-03  3.4789e-01  2.2625e-02  0:00:01 1844
   157  2.1724e-02  1.9479e-02  6.8945e-03  3.3153e-01  2.1722e-02  0:00:01 1843
   158  1.9726e-02  1.9414e-02  6.8995e-03  3.1379e-01  1.9724e-02  0:00:01 1842
   159  1.9287e-02  1.9422e-02  6.9006e-03  2.9602e-01  1.9285e-02  0:00:00 1841
   160  1.9308e-02  1.9150e-02  6.6638e-03  2.8176e-01  1.9306e-02  0:00:00 1840
   161  1.9684e-02  1.8673e-02  6.4817e-03  2.7204e-01  1.9683e-02  0:00:00 1839
   162  2.0164e-02  1.8263e-02  6.3190e-03  2.6821e-01  2.0162e-02  0:00:00 1838
   163  2.0105e-02  1.8052e-02  6.1645e-03  2.7414e-01  2.0104e-02  0:00:00 1837
   164  1.9851e-02  1.7915e-02  5.8673e-03  2.8386e-01  1.9850e-02  0:00:00 1836
   165  1.9283e-02  1.7359e-02  5.5145e-03  2.9425e-01  1.9282e-02  0:06:07 1835

  iter  continuity  x-velocity  y-velocity  z-velocity      energy     time/iter
   166  1.9416e-02  1.7227e-02  5.3062e-03  2.9897e-01  1.9415e-02  0:04:54 1834
   167  1.9740e-02  1.7019e-02  5.1370e-03  2.9958e-01  1.9739e-02  0:03:55 1833
   168  1.9551e-02  1.6871e-02  5.0953e-03  3.0294e-01  1.9550e-02  0:03:08 1832
   169  1.8874e-02  1.6775e-02  5.0768e-03  3.0498e-01  1.8873e-02  0:02:30 1831
   170  1.8055e-02  1.6529e-02  5.2783e-03  3.0338e-01  1.8053e-02  0:02:00 1830
   171  1.6654e-02  1.6432e-02  5.3583e-03  3.0046e-01  1.6651e-02  0:01:36 1829
   172  1.5470e-02  1.6117e-02  5.1099e-03  3.0355e-01  1.5466e-02  0:01:17 1828
   173  1.3732e-02  1.5723e-02  5.0752e-03  3.1024e-01  1.3726e-02  0:01:01 1827
   174  1.2090e-02  1.5403e-02  4.8835e-03  3.1416e-01  1.2084e-02  0:00:49 1826
   175  1.1693e-02  1.5046e-02  4.7564e-03  3.1341e-01  1.1688e-02  0:00:39 1825
   176  1.1563e-02  1.4561e-02  4.6508e-03  3.1185e-01  1.1559e-02  0:00:31 1824

  iter  continuity  x-velocity  y-velocity  z-velocity      energy     time/iter
   177  1.1058e-02  1.3731e-02  4.2732e-03  3.0766e-01  1.1055e-02  0:00:25 1823
   178  1.0396e-02  1.2870e-02  3.9045e-03  3.0011e-01  1.0393e-02  0:00:20 1822
   179  9.6841e-03  1.2200e-02  3.6541e-03  2.8979e-01  9.6814e-03  0:00:16 1821
   180  8.9152e-03  1.1558e-02  3.3652e-03  2.7678e-01  8.9128e-03  0:00:13 1820
   181  8.2877e-03  1.0934e-02  3.1341e-03  2.6207e-01  8.2856e-03  0:00:10 1819
   182  7.7682e-03  1.0327e-02  2.9467e-03  2.4451e-01  7.7665e-03  0:00:08 1818
   183  7.4196e-03  9.7415e-03  2.7499e-03  2.2682e-01  7.4182e-03  0:00:07 1817
   184  7.2163e-03  9.1982e-03  2.5790e-03  2.0936e-01  7.2154e-03  0:00:05 1816
   185  7.0808e-03  8.6727e-03  2.4335e-03  1.9428e-01  7.0802e-03  0:00:04 1815
   186  7.1343e-03  8.2063e-03  2.3119e-03  1.8197e-01  7.1339e-03  0:00:03 1814
   187  7.3007e-03  7.7816e-03  2.2008e-03  1.7356e-01  7.3005e-03  0:00:03 1813

  iter  continuity  x-velocity  y-velocity  z-velocity      energy     time/iter
   188  7.2607e-03  7.4178e-03  2.1209e-03  1.7003e-01  7.2604e-03  0:00:02 1812
   189  7.4105e-03  7.1101e-03  2.0756e-03  1.7067e-01  7.4101e-03  0:00:02 1811
   190  7.7969e-03  6.8770e-03  2.0658e-03  1.7629e-01  7.7963e-03  0:00:01 1810
   191  8.3747e-03  6.7238e-03  2.0934e-03  1.8713e-01  8.3741e-03  0:00:01 1809
   192  8.6914e-03  6.6442e-03  2.1464e-03  1.9905e-01  8.6906e-03  0:00:01 1808
   193  8.5171e-03  6.6086e-03  2.2287e-03  2.0837e-01  8.5160e-03  0:00:01 1807
   194  8.1732e-03  6.5696e-03  2.3179e-03  2.1933e-01  8.1719e-03  0:00:01 1806
   195  7.5489e-03  6.5783e-03  2.4132e-03  2.3030e-01  7.5471e-03  0:00:00 1805
   196  7.1105e-03  6.6277e-03  2.4919e-03  2.3854e-01  7.1086e-03  0:00:00 1804
   197  6.7927e-03  6.6988e-03  2.5252e-03  2.4644e-01  6.7905e-03  0:00:00 1803
   198  6.2717e-03  6.7758e-03  2.5350e-03  2.5374e-01  6.2691e-03  0:00:00 1802

  iter  continuity  x-velocity  y-velocity  z-velocity      energy     time/iter
   199  5.6992e-03  6.8296e-03  2.5181e-03  2.5975e-01  5.6962e-03  0:00:00 1801
   200  5.3571e-03  6.8486e-03  2.4624e-03  2.6411e-01  5.3541e-03  0:00:00 1800
   201  4.8956e-03  6.8323e-03  2.3742e-03  2.6462e-01  4.8925e-03  0:00:00 1799
   202  4.3640e-03  6.7414e-03  2.2669e-03  2.5907e-01  4.3608e-03  0:06:00 1798
   203  3.8705e-03  6.6667e-03  2.1948e-03  2.5314e-01  3.8671e-03  0:04:48 1797
   204  3.3083e-03  6.5941e-03  2.1044e-03  2.4463e-01  3.3046e-03  0:03:50 1796
   205  3.0145e-03  6.5130e-03  2.0165e-03  2.3346e-01  3.0108e-03  0:03:04 1795
   206  2.7976e-03  6.4031e-03  1.9280e-03  2.1665e-01  2.7940e-03  0:02:27 1794
   207  2.5918e-03  6.2607e-03  1.8447e-03  2.0009e-01  2.5881e-03  0:01:58 1793
   208  2.3844e-03  6.0901e-03  1.7777e-03  1.8413e-01  2.3806e-03  0:01:34 1792
   209  2.2403e-03  5.9192e-03  1.7160e-03  1.6952e-01  2.2364e-03  0:01:15 1791

  iter  continuity  x-velocity  y-velocity  z-velocity      energy     time/iter
   210  2.1723e-03  5.7207e-03  1.6501e-03  1.5661e-01  2.1685e-03  0:01:00 1790
   211  2.1773e-03  5.5105e-03  1.5818e-03  1.4444e-01  2.1736e-03  0:00:48 1789
   212  2.2363e-03  5.3012e-03  1.5275e-03  1.3589e-01  2.2327e-03  0:00:38 1788
   213  2.3301e-03  5.0788e-03  1.4780e-03  1.2528e-01  2.3266e-03  0:00:31 1787
   214  2.4368e-03  4.8480e-03  1.4376e-03  1.1416e-01  2.4333e-03  0:00:25 1786
   215  2.5446e-03  4.6221e-03  1.3919e-03  1.0524e-01  2.5411e-03  0:00:20 1785
   216  2.6516e-03  4.4066e-03  1.3559e-03  9.8321e-02  2.6481e-03  0:00:16 1784
   217  2.7537e-03  4.1980e-03  1.3222e-03  9.1931e-02  2.7502e-03  0:00:13 1783
   218  2.8466e-03  3.9872e-03  1.3131e-03  8.3835e-02  2.8431e-03  0:00:10 1782
   219  2.9164e-03  3.7781e-03  1.2898e-03  7.6687e-02  2.9129e-03  0:00:08 1781
   220  2.9819e-03  3.5672e-03  1.2505e-03  7.0046e-02  2.9784e-03  0:00:06 1780

  iter  continuity  x-velocity  y-velocity  z-velocity      energy     time/iter
   221  3.0437e-03  3.3611e-03  1.2370e-03  6.5346e-02  3.0401e-03  0:00:05 1779
   222  3.1027e-03  3.1810e-03  1.2280e-03  6.1145e-02  3.0990e-03  0:00:04 1778
   223  3.1607e-03  3.0260e-03  1.2234e-03  5.7889e-02  3.1570e-03  0:00:03 1777
   224  3.2244e-03  2.8942e-03  1.2216e-03  5.6873e-02  3.2207e-03  0:00:03 1776
   225  3.2891e-03  2.7849e-03  1.2239e-03  5.6709e-02  3.2853e-03  0:00:02 1775
   226  3.3546e-03  2.6974e-03  1.2274e-03  5.7125e-02  3.3509e-03  0:00:02 1774
   227  3.4232e-03  2.6302e-03  1.2349e-03  5.8358e-02  3.4194e-03  0:00:01 1773
   228  3.4944e-03  2.5832e-03  1.2440e-03  6.0534e-02  3.4906e-03  0:00:01 1772
   229  3.5669e-03  2.5568e-03  1.2554e-03  6.3517e-02  3.5632e-03  0:00:01 1771
   230  3.6405e-03  2.5504e-03  1.2678e-03  6.7070e-02  3.6368e-03  0:00:01 1770
   231  3.7172e-03  2.5635e-03  1.2817e-03  7.1030e-02  3.7136e-03  0:00:01 1769

  iter  continuity  x-velocity  y-velocity  z-velocity      energy     time/iter
   232  3.7991e-03  2.5941e-03  1.2965e-03  7.5250e-02  3.7955e-03  0:00:00 1768
   233  3.8641e-03  2.6414e-03  1.3113e-03  7.9633e-02  3.8605e-03  0:00:00 1767
   234  3.9436e-03  2.7035e-03  1.3236e-03  8.4356e-02  3.9400e-03  0:00:00 1766
   235  4.0270e-03  2.7777e-03  1.3357e-03  8.9354e-02  4.0234e-03  0:00:00 1765
   236  4.1136e-03  2.8610e-03  1.3477e-03  9.4506e-02  4.1101e-03  0:00:00 1764
   237  4.2149e-03  2.9523e-03  1.3596e-03  9.9895e-02  4.2114e-03  0:00:00 1763
   238  4.2978e-03  3.0374e-03  1.3718e-03  1.0552e-01  4.2943e-03  0:05:53 1762
   239  4.3391e-03  3.1319e-03  1.3837e-03  1.1103e-01  4.3357e-03  0:04:42 1761
   240  4.3142e-03  3.2335e-03  1.3965e-03  1.1659e-01  4.3108e-03  0:03:45 1760
   241  4.2675e-03  3.3346e-03  1.4080e-03  1.2142e-01  4.2640e-03  0:03:00 1759
   242  4.2421e-03  3.4329e-03  1.4206e-03  1.2552e-01  4.2386e-03  0:02:24 1758

  iter  continuity  x-velocity  y-velocity  z-velocity      energy     time/iter
   243  4.2720e-03  3.5302e-03  1.4315e-03  1.2900e-01  4.2685e-03  0:01:55 1757
   244  4.3365e-03  3.6224e-03  1.4351e-03  1.3167e-01  4.3331e-03  0:01:32 1756
   245  4.4121e-03  3.7103e-03  1.4329e-03  1.3343e-01  4.4087e-03  0:01:14 1755
   246  4.4683e-03  3.7973e-03  1.4265e-03  1.3435e-01  4.4650e-03  0:00:59 1754
   247  4.4270e-03  3.8886e-03  1.4222e-03  1.3430e-01  4.4238e-03  0:00:47 1753
   248  4.4546e-03  3.9784e-03  1.4222e-03  1.3340e-01  4.4514e-03  0:00:38 1752
   249  4.5043e-03  4.0697e-03  1.4187e-03  1.3175e-01  4.5013e-03  0:00:30 1751
   250  4.5477e-03  4.1587e-03  1.4129e-03  1.2878e-01  4.5448e-03  0:00:24 1750
   251  4.6110e-03  4.2468e-03  1.4074e-03  1.2482e-01  4.6082e-03  0:00:19 1749
   252  4.6997e-03  4.3351e-03  1.4042e-03  1.2024e-01  4.6970e-03  0:00:15 1748
   253  4.7823e-03  4.4278e-03  1.4016e-03  1.1496e-01  4.7797e-03  0:00:12 1747

  iter  continuity  x-velocity  y-velocity  z-velocity      energy     time/iter
   254  4.8657e-03  4.5237e-03  1.3977e-03  1.0935e-01  4.8632e-03  0:00:10 1746
   255  4.9562e-03  4.6209e-03  1.3958e-03  1.0358e-01  4.9538e-03  0:00:08 1745
   256  5.0322e-03  4.7200e-03  1.3891e-03  9.7802e-02  5.0300e-03  0:00:06 1744
   257  5.1170e-03  4.8231e-03  1.3835e-03  9.1915e-02  5.1148e-03  0:00:05 1743
   258  5.2198e-03  4.9314e-03  1.3793e-03  8.6445e-02  5.2178e-03  0:00:04 1742
   259  5.3699e-03  5.0406e-03  1.3771e-03  8.1404e-02  5.3680e-03  0:00:03 1741
   260  5.4840e-03  5.1472e-03  1.3765e-03  7.7012e-02  5.4822e-03  0:00:03 1740
   261  5.5203e-03  5.2517e-03  1.3821e-03  7.3533e-02  5.5186e-03  0:00:02 1739
   262  5.5565e-03  5.3657e-03  1.3865e-03  7.0837e-02  5.5548e-03  0:00:02 1738
   263  5.6027e-03  5.4839e-03  1.3886e-03  6.9367e-02  5.6010e-03  0:00:01 1737
   264  5.6839e-03  5.6007e-03  1.3911e-03  6.9320e-02  5.6823e-03  0:00:01 1736

  iter  continuity  x-velocity  y-velocity  z-velocity      energy     time/iter
   265  5.7919e-03  5.7147e-03  1.3947e-03  7.0395e-02  5.7903e-03  0:00:01 1735
   266  5.9057e-03  5.8268e-03  1.4010e-03  7.2264e-02  5.9042e-03  0:05:47 1734
   267  6.0165e-03  5.9398e-03  1.4100e-03  7.4824e-02  6.0150e-03  0:04:38 1733
   268  6.1972e-03  6.0606e-03  1.4304e-03  7.7942e-02  6.1957e-03  0:03:42 1732
   269  6.3660e-03  6.1688e-03  1.4632e-03  8.2757e-02  6.3645e-03  0:02:58 1731
   270  6.5189e-03  6.2647e-03  1.5057e-03  8.6583e-02  6.5173e-03  0:02:22 1730
   271  6.5972e-03  6.3614e-03  1.5222e-03  9.1699e-02  6.5956e-03  0:01:54 1729
   272  6.6039e-03  6.4551e-03  1.5183e-03  9.4510e-02  6.6024e-03  0:01:31 1728
   273  6.5661e-03  6.5255e-03  1.5138e-03  9.5307e-02  6.5645e-03  0:01:13 1727
   274  6.5313e-03  6.5762e-03  1.5138e-03  9.5099e-02  6.5297e-03  0:00:58 1726
   275  6.5177e-03  6.6118e-03  1.5191e-03  9.4259e-02  6.5161e-03  0:00:46 1725

  iter  continuity  x-velocity  y-velocity  z-velocity      energy     time/iter
   276  6.5137e-03  6.6281e-03  1.5192e-03  9.3172e-02  6.5121e-03  0:00:37 1724
   277  6.5147e-03  6.6315e-03  1.5116e-03  9.2561e-02  6.5130e-03  0:00:30 1723
   278  6.5081e-03  6.6317e-03  1.5022e-03  9.1621e-02  6.5063e-03  0:00:24 1722
   279  6.5042e-03  6.6269e-03  1.4960e-03  9.0205e-02  6.5025e-03  0:00:19 1721
   280  6.4995e-03  6.6183e-03  1.4888e-03  8.8822e-02  6.4977e-03  0:00:15 1720
   281  6.4985e-03  6.6025e-03  1.4844e-03  8.7319e-02  6.4967e-03  0:00:12 1719
   282  6.5025e-03  6.5833e-03  1.4808e-03  8.5748e-02  6.5007e-03  0:00:10 1718
   283  6.4766e-03  6.5549e-03  1.4712e-03  8.3849e-02  6.4748e-03  0:00:08 1717
   284  6.4284e-03  6.5128e-03  1.4531e-03  8.1901e-02  6.4266e-03  0:00:06 1716
   285  6.3747e-03  6.4583e-03  1.4418e-03  7.9833e-02  6.3728e-03  0:00:05 1715
   286  6.3182e-03  6.3912e-03  1.4317e-03  7.7417e-02  6.3163e-03  0:00:04 1714

  iter  continuity  x-velocity  y-velocity  z-velocity      energy     time/iter
   287  6.2632e-03  6.3132e-03  1.4210e-03  7.4704e-02  6.2612e-03  0:00:03 1713
   288  6.1998e-03  6.2392e-03  1.4358e-03  7.0195e-02  6.1979e-03  0:00:03 1712
   289  6.1336e-03  6.1572e-03  1.4360e-03  6.7918e-02  6.1316e-03  0:00:02 1711
   290  6.0587e-03  6.0548e-03  1.4213e-03  6.5547e-02  6.0567e-03  0:00:02 1710
   291  5.9747e-03  5.9378e-03  1.4063e-03  6.3072e-02  5.9726e-03  0:00:01 1709
   292  5.8971e-03  5.8125e-03  1.3935e-03  6.0589e-02  5.8949e-03  0:00:01 1708
   293  5.8299e-03  5.6756e-03  1.3839e-03  5.8088e-02  5.8278e-03  0:00:01 1707
   294  5.7477e-03  5.5237e-03  1.3799e-03  5.6168e-02  5.7455e-03  0:00:01 1706
   295  5.7009e-03  5.3594e-03  1.3720e-03  5.4217e-02  5.6987e-03  0:00:01 1705
   296  5.5869e-03  5.1709e-03  1.3666e-03  5.2415e-02  5.5847e-03  0:00:00 1704
   297  5.4469e-03  4.9678e-03  1.3681e-03  5.0744e-02  5.4447e-03  0:00:00 1703

  iter  continuity  x-velocity  y-velocity  z-velocity      energy     time/iter
   298  5.2901e-03  4.7691e-03  1.3645e-03  4.9180e-02  5.2879e-03  0:00:00 1702
   299  5.1207e-03  4.5624e-03  1.3575e-03  4.7426e-02  5.1184e-03  0:00:00 1701
   300  4.8881e-03  4.3414e-03  1.3305e-03  4.5672e-02  4.8859e-03  0:00:00 1700
   301  4.4899e-03  4.1260e-03  1.3055e-03  4.4103e-02  4.4875e-03  0:00:00 1699
   302  4.1115e-03  3.9147e-03  1.2841e-03  4.2276e-02  4.1090e-03  0:05:40 1698
   303  3.7696e-03  3.7011e-03  1.2618e-03  4.0429e-02  3.7670e-03  0:04:32 1697
   304  3.4422e-03  3.4874e-03  1.2399e-03  3.9015e-02  3.4395e-03  0:03:37 1696
   305  3.0854e-03  3.2736e-03  1.2156e-03  3.7888e-02  3.0824e-03  0:02:54 1695
   306  2.6548e-03  3.0564e-03  1.1871e-03  3.7604e-02  2.6516e-03  0:02:19 1694
   307  2.3911e-03  2.8634e-03  1.1554e-03  3.6852e-02  2.3877e-03  0:01:51 1693
   308  2.1949e-03  2.6886e-03  1.1220e-03  3.5388e-02  2.1914e-03  0:01:29 1692

  iter  continuity  x-velocity  y-velocity  z-velocity      energy     time/iter
   309  2.0109e-03  2.5330e-03  1.0905e-03  3.4081e-02  2.0072e-03  0:01:11 1691
   310  1.8562e-03  2.3945e-03  1.0623e-03  3.3051e-02  1.8524e-03  0:00:57 1690
   311  1.7389e-03  2.2767e-03  1.0380e-03  3.2535e-02  1.7351e-03  0:00:45 1689
   312  1.6907e-03  2.1878e-03  1.0166e-03  3.2362e-02  1.6870e-03  0:00:36 1688
   313  1.7038e-03  2.1288e-03  9.9785e-04  3.2057e-02  1.7003e-03  0:00:29 1687
   314  1.7684e-03  2.0986e-03  9.8193e-04  3.2137e-02  1.7653e-03  0:00:23 1686
   315  1.8617e-03  2.0972e-03  9.7021e-04  3.2357e-02  1.8589e-03  0:00:19 1685
   316  1.9909e-03  2.1207e-03  9.6229e-04  3.3344e-02  1.9885e-03  0:00:15 1684
   317  2.1150e-03  2.1674e-03  9.5690e-04  3.5550e-02  2.1129e-03  0:00:12 1683
   318  2.2579e-03  2.2323e-03  9.5353e-04  3.7981e-02  2.2560e-03  0:00:09 1682
   319  2.4278e-03  2.3164e-03  9.5555e-04  4.0182e-02  2.4261e-03  0:00:08 1681

  iter  continuity  x-velocity  y-velocity  z-velocity      energy     time/iter
   320  2.6142e-03  2.4148e-03  9.5902e-04  4.2424e-02  2.6127e-03  0:00:06 1680
   321  2.8173e-03  2.5200e-03  9.6375e-04  4.4504e-02  2.8160e-03  0:00:05 1679
   322  3.0227e-03  2.6333e-03  9.7029e-04  4.5735e-02  3.0216e-03  0:00:04 1678
   323  3.2280e-03  2.7459e-03  9.7853e-04  4.6391e-02  3.2270e-03  0:00:03 1677
   324  3.4108e-03  2.8584e-03  9.9671e-04  4.7783e-02  3.4098e-03  0:00:02 1676
   325  3.6401e-03  2.9767e-03  1.0314e-03  4.9192e-02  3.6392e-03  0:00:02 1675
   326  3.7193e-03  3.1011e-03  1.0751e-03  5.2783e-02  3.7184e-03  0:00:02 1674
   327  3.7523e-03  3.2242e-03  1.1103e-03  5.7514e-02  3.7514e-03  0:00:01 1673
   328  3.8163e-03  3.3386e-03  1.1167e-03  6.4286e-02  3.8155e-03  0:00:01 1672
   329  3.8849e-03  3.4347e-03  1.1093e-03  7.2930e-02  3.8841e-03  0:00:01 1671
   330  3.9658e-03  3.5292e-03  1.1065e-03  8.1428e-02  3.9649e-03  0:00:01 1670

  iter  continuity  x-velocity  y-velocity  z-velocity      energy     time/iter
   331  4.0665e-03  3.6270e-03  1.1122e-03  8.3016e-02  4.0657e-03  0:00:01 1669
   332  4.1826e-03  3.7293e-03  1.1108e-03  8.1820e-02  4.1817e-03  0:00:00 1668
   333  4.3145e-03  3.8316e-03  1.1035e-03  8.2110e-02  4.3137e-03  0:00:00 1667
   334  4.4620e-03  3.9297e-03  1.1018e-03  8.4283e-02  4.4611e-03  0:05:33 1666
   335  4.6108e-03  4.0201e-03  1.1126e-03  8.7572e-02  4.6099e-03  0:04:27 1665
   336  4.7652e-03  4.1034e-03  1.1245e-03  9.1444e-02  4.7644e-03  0:03:33 1664
   337  4.9105e-03  4.1811e-03  1.1336e-03  9.6107e-02  4.9096e-03  0:02:50 1663
   338  5.0212e-03  4.2541e-03  1.1444e-03  1.0560e-01  5.0203e-03  0:02:16 1662
   339  5.1051e-03  4.3196e-03  1.1572e-03  1.1155e-01  5.1043e-03  0:01:49 1661
   340  5.1675e-03  4.3810e-03  1.1744e-03  1.1583e-01  5.1667e-03  0:01:27 1660
   341  5.2013e-03  4.4317e-03  1.1968e-03  1.1653e-01  5.2006e-03  0:01:10 1659

  iter  continuity  x-velocity  y-velocity  z-velocity      energy     time/iter
   342  5.1709e-03  4.4521e-03  1.2051e-03  1.1480e-01  5.1702e-03  0:00:56 1658
   343  5.1003e-03  4.4191e-03  1.1978e-03  1.1149e-01  5.0996e-03  0:00:45 1657
   344  5.0184e-03  4.4176e-03  1.1935e-03  1.1009e-01  5.0177e-03  0:00:36 1656
   345  4.8939e-03  4.3757e-03  1.1333e-03  1.1371e-01  4.8932e-03  0:00:28 1655
   346  4.7676e-03  4.3380e-03  1.0981e-03  1.2975e-01  4.7668e-03  0:00:23 1654
   347  4.6563e-03  4.2974e-03  1.0588e-03  1.3484e-01  4.6555e-03  0:00:18 1653
   348  4.5674e-03  4.2481e-03  1.0153e-03  1.3455e-01  4.5666e-03  0:00:15 1652
   349  4.5077e-03  4.1866e-03  9.7198e-04  1.3590e-01  4.5070e-03  0:00:12 1651
   350  4.4749e-03  4.1168e-03  9.3184e-04  1.4002e-01  4.4742e-03  0:00:09 1650
   351  4.4594e-03  4.0432e-03  8.9366e-04  1.4487e-01  4.4588e-03  0:00:07 1649
   352  4.4531e-03  3.9676e-03  8.5898e-04  1.5013e-01  4.4526e-03  0:05:36 1648

  iter  continuity  x-velocity  y-velocity  z-velocity      energy     time/iter
   353  4.4470e-03  3.8919e-03  8.2722e-04  1.5591e-01  4.4465e-03  0:04:28 1647
   354  4.4361e-03  3.8161e-03  7.9805e-04  1.6249e-01  4.4356e-03  0:03:34 1646
   355  4.4124e-03  3.7413e-03  7.7165e-04  1.6843e-01  4.4119e-03  0:02:51 1645
   356  4.3471e-03  3.6664e-03  7.4747e-04  1.6985e-01  4.3466e-03  0:02:17 1644
   357  4.2421e-03  3.5916e-03  7.2392e-04  1.7190e-01  4.2416e-03  0:01:50 1643
   358  4.1330e-03  3.5150e-03  7.0088e-04  1.7037e-01  4.1325e-03  0:01:28 1642
   359  4.0241e-03  3.4360e-03  6.7969e-04  1.7082e-01  4.0236e-03  0:01:10 1641
   360  3.9120e-03  3.3539e-03  6.6162e-04  1.7353e-01  3.9115e-03  0:00:56 1640
   361  3.8117e-03  3.2718e-03  6.4387e-04  1.7456e-01  3.8112e-03  0:00:45 1639
   362  3.6992e-03  3.1869e-03  6.2830e-04  1.7764e-01  3.6987e-03  0:00:36 1638
   363  3.5831e-03  3.1010e-03  6.1439e-04  1.8025e-01  3.5826e-03  0:00:29 1637

  iter  continuity  x-velocity  y-velocity  z-velocity      energy     time/iter
   364  3.4678e-03  3.0146e-03  6.0169e-04  1.8162e-01  3.4672e-03  0:00:23 1636
   365  3.3532e-03  2.9274e-03  5.8973e-04  1.8182e-01  3.3527e-03  0:00:18 1635
   366  3.2377e-03  2.8421e-03  5.7780e-04  1.8048e-01  3.2372e-03  0:00:15 1634
   367  3.1156e-03  2.7561e-03  5.6677e-04  1.7657e-01  3.1151e-03  0:00:12 1633
   368  2.9813e-03  2.6695e-03  5.5714e-04  1.7250e-01  2.9807e-03  0:00:09 1632
   369  2.8304e-03  2.5831e-03  5.4825e-04  1.6914e-01  2.8298e-03  0:00:07 1631
   370  2.6843e-03  2.4964e-03  5.3912e-04  1.6422e-01  2.6837e-03  0:00:06 1630
   371  2.5335e-03  2.4101e-03  5.2911e-04  1.6002e-01  2.5328e-03  0:00:05 1629
   372  2.3741e-03  2.3232e-03  5.1778e-04  1.5521e-01  2.3734e-03  0:00:04 1628
   373  2.2324e-03  2.2340e-03  5.0622e-04  1.4786e-01  2.2317e-03  0:05:28 1627
   374  2.0187e-03  2.1446e-03  4.9468e-04  1.4119e-01  2.0180e-03  0:04:23 1626

  iter  continuity  x-velocity  y-velocity  z-velocity      energy     time/iter
   375  1.7708e-03  2.0535e-03  4.8348e-04  1.2590e-01  1.7699e-03  0:03:30 1625
   376  1.5539e-03  1.9638e-03  4.7293e-04  1.1815e-01  1.5529e-03  0:02:48 1624
   377  1.3694e-03  1.8740e-03  4.6198e-04  1.0629e-01  1.3683e-03  0:02:14 1623
   378  1.2129e-03  1.7837e-03  4.5158e-04  9.7529e-02  1.2117e-03  0:01:47 1622
   379  1.0743e-03  1.6956e-03  4.4211e-04  8.9353e-02  1.0729e-03  0:01:26 1621
   380  9.4709e-04  1.6091e-03  4.3360e-04  8.4237e-02  9.4559e-04  0:01:09 1620
   381  8.2815e-04  1.5251e-03  4.2594e-04  8.2391e-02  8.2646e-04  0:00:55 1619
   382  7.1675e-04  1.4440e-03  4.1921e-04  8.2100e-02  7.1480e-04  0:00:44 1618
   383  6.1494e-04  1.3663e-03  4.1329e-04  8.2902e-02  6.1269e-04  0:00:35 1617
   384  5.2865e-04  1.2921e-03  4.0817e-04  8.4366e-02  5.2604e-04  0:00:28 1616
   385  4.6804e-04  1.2220e-03  4.0404e-04  8.5780e-02  4.6510e-04  0:00:22 1615

  iter  continuity  x-velocity  y-velocity  z-velocity      energy     time/iter
   386  4.4547e-04  1.1559e-03  4.0065e-04  8.5024e-02  4.4239e-04  0:00:18 1614
   387  4.7153e-04  1.0941e-03  3.9806e-04  8.5435e-02  4.6863e-04  0:00:14 1613
   388  5.3853e-04  1.0376e-03  3.9612e-04  8.4839e-02  5.3600e-04  0:00:11 1612
   389  6.3079e-04  9.8711e-04  3.9486e-04  8.7277e-02  6.2863e-04  0:00:09 1611
   390  7.3397e-04  9.4323e-04  3.9427e-04  8.8246e-02  7.3212e-04  0:00:07 1610
   391  8.4159e-04  9.0675e-04  3.9434e-04  8.4461e-02  8.3999e-04  0:00:06 1609
   392  9.5011e-04  8.7833e-04  3.9505e-04  7.6906e-02  9.4870e-04  0:00:05 1608
   393  1.0575e-03  8.5857e-04  3.9635e-04  7.3567e-02  1.0562e-03  0:00:04 1607
   394  1.1624e-03  8.4786e-04  3.9821e-04  7.2832e-02  1.1613e-03  0:00:03 1606
   395  1.2643e-03  8.4629e-04  4.0061e-04  6.9649e-02  1.2633e-03  0:05:23 1605
   396  1.3629e-03  8.5364e-04  4.0348e-04  6.5004e-02  1.3619e-03  0:04:19 1604

  iter  continuity  x-velocity  y-velocity  z-velocity      energy     time/iter
   397  1.4581e-03  8.6943e-04  4.0675e-04  5.9936e-02  1.4572e-03  0:03:27 1603
   398  1.5496e-03  8.9299e-04  4.1036e-04  5.5536e-02  1.5487e-03  0:02:45 1602
   399  1.6374e-03  9.2313e-04  4.1423e-04  5.3512e-02  1.6366e-03  0:02:12 1601
   400  1.7217e-03  9.5879e-04  4.1835e-04  5.1954e-02  1.7209e-03  0:01:46 1600
   401  1.8089e-03  9.9872e-04  4.2266e-04  5.0861e-02  1.8082e-03  0:01:24 1599
   402  1.8963e-03  1.0423e-03  4.2720e-04  5.5922e-02  1.8956e-03  0:01:08 1598
   403  1.9771e-03  1.0890e-03  4.3186e-04  5.6884e-02  1.9764e-03  0:00:54 1597
   404  2.0509e-03  1.1377e-03  4.3656e-04  5.6918e-02  2.0503e-03  0:00:43 1596
   405  2.1215e-03  1.1885e-03  4.4189e-04  5.6363e-02  2.1208e-03  0:00:35 1595
   406  2.1847e-03  1.2403e-03  4.4817e-04  5.7267e-02  2.1841e-03  0:00:28 1594
   407  2.2441e-03  1.2923e-03  4.5378e-04  5.6691e-02  2.2435e-03  0:00:22 1593

  iter  continuity  x-velocity  y-velocity  z-velocity      energy     time/iter
   408  2.2992e-03  1.3443e-03  4.5836e-04  5.6989e-02  2.2987e-03  0:00:18 1592
   409  2.3539e-03  1.3959e-03  4.6223e-04  5.7282e-02  2.3534e-03  0:00:14 1591
   410  2.4037e-03  1.4471e-03  4.6590e-04  5.9532e-02  2.4031e-03  0:00:11 1590
   411  2.4509e-03  1.4970e-03  4.6934e-04  6.3541e-02  2.4504e-03  0:00:09 1589
   412  2.4969e-03  1.5461e-03  4.7279e-04  6.8722e-02  2.4964e-03  0:00:07 1588
   413  2.5406e-03  1.5948e-03  4.7631e-04  7.6521e-02  2.5401e-03  0:00:06 1587
   414  2.5804e-03  1.6428e-03  4.7969e-04  8.5078e-02  2.5799e-03  0:00:05 1586
   415  2.6149e-03  1.6862e-03  4.8294e-04  9.2951e-02  2.6145e-03  0:00:04 1585
   416  2.6440e-03  1.7258e-03  4.8586e-04  9.9680e-02  2.6435e-03  0:05:20 1584
   417  2.6663e-03  1.7644e-03  4.8820e-04  1.0438e-01  2.6659e-03  0:04:16 1583
   418  2.6835e-03  1.8018e-03  4.8965e-04  1.0770e-01  2.6831e-03  0:03:24 1582

  iter  continuity  x-velocity  y-velocity  z-velocity      energy     time/iter
   419  2.7006e-03  1.8360e-03  4.9221e-04  1.1046e-01  2.7002e-03  0:02:43 1581
   420  2.7185e-03  1.8708e-03  4.9551e-04  1.1377e-01  2.7181e-03  0:02:11 1580
   421  2.7364e-03  1.9067e-03  4.9777e-04  1.1524e-01  2.7360e-03  0:01:44 1579
   422  2.7536e-03  1.9422e-03  4.9925e-04  1.1514e-01  2.7532e-03  0:01:24 1578
   423  2.7738e-03  1.9742e-03  4.9956e-04  1.1391e-01  2.7734e-03  0:01:07 1577
   424  2.7755e-03  2.0034e-03  4.9970e-04  1.0982e-01  2.7751e-03  0:00:53 1576
   425  2.7760e-03  2.0303e-03  5.0028e-04  1.1476e-01  2.7756e-03  0:00:43 1575
   426  2.7848e-03  2.0558e-03  5.0147e-04  1.1345e-01  2.7844e-03  0:00:34 1574
   427  2.7961e-03  2.0799e-03  5.0315e-04  1.1083e-01  2.7957e-03  0:00:27 1573
   428  2.8025e-03  2.1023e-03  5.0545e-04  1.1171e-01  2.8021e-03  0:00:22 1572
   429  2.8021e-03  2.1228e-03  5.0640e-04  1.0912e-01  2.8017e-03  0:00:17 1571

  iter  continuity  x-velocity  y-velocity  z-velocity      energy     time/iter
   430  2.7972e-03  2.1407e-03  5.0722e-04  1.0265e-01  2.7969e-03  0:00:14 1570
   431  2.7883e-03  2.1566e-03  5.0762e-04  9.5771e-02  2.7879e-03  0:00:11 1569
   432  2.7859e-03  2.1705e-03  5.0752e-04  8.8656e-02  2.7856e-03  0:00:09 1568
   433  2.7844e-03  2.1817e-03  5.0690e-04  8.4271e-02  2.7840e-03  0:00:07 1567
   434  2.7737e-03  2.1894e-03  5.0577e-04  8.1865e-02  2.7733e-03  0:00:06 1566
   435  2.7514e-03  2.1938e-03  5.0419e-04  8.3292e-02  2.7511e-03  0:00:05 1565
   436  2.7212e-03  2.1931e-03  5.0323e-04  8.8199e-02  2.7208e-03  0:00:04 1564
   437  2.6886e-03  2.1909e-03  5.0139e-04  9.9905e-02  2.6883e-03  0:05:16 1563
   438  2.6513e-03  2.1852e-03  4.9768e-04  1.0342e-01  2.6509e-03  0:04:12 1562
   439  2.6109e-03  2.1749e-03  4.9288e-04  9.9848e-02  2.6105e-03  0:03:22 1561
   440  2.5671e-03  2.1599e-03  4.8719e-04  1.0161e-01  2.5667e-03  0:02:41 1560

  iter  continuity  x-velocity  y-velocity  z-velocity      energy     time/iter
   441  2.5190e-03  2.1406e-03  4.8078e-04  1.0476e-01  2.5186e-03  0:02:09 1559
   442  2.4665e-03  2.1178e-03  4.7365e-04  1.0754e-01  2.4661e-03  0:01:43 1558
   443  2.4102e-03  2.0916e-03  4.6596e-04  1.0967e-01  2.4099e-03  0:01:22 1557
   444  2.3512e-03  2.0619e-03  4.5774e-04  1.1157e-01  2.3509e-03  0:01:06 1556
   445  2.2901e-03  2.0291e-03  4.4891e-04  1.1340e-01  2.2897e-03  0:00:53 1555
   446  2.2268e-03  1.9933e-03  4.4026e-04  1.1499e-01  2.2264e-03  0:00:42 1554
   447  2.1616e-03  1.9547e-03  4.3092e-04  1.2019e-01  2.1612e-03  0:00:34 1553
   448  2.0938e-03  1.9125e-03  4.2087e-04  1.2453e-01  2.0934e-03  0:00:27 1552
   449  2.0232e-03  1.8688e-03  4.1070e-04  1.2815e-01  2.0227e-03  0:00:22 1551
   450  1.9499e-03  1.8230e-03  4.0070e-04  1.2748e-01  1.9494e-03  0:00:17 1550
   451  1.8731e-03  1.7751e-03  3.9098e-04  1.7664e-01  1.8727e-03  0:00:14 1549

  iter  continuity  x-velocity  y-velocity  z-velocity      energy     time/iter
   452  1.7935e-03  1.7255e-03  3.8143e-04  1.8447e-01  1.7930e-03  0:00:11 1548
   453  1.7124e-03  1.6741e-03  3.7202e-04  1.6634e-01  1.7120e-03  0:00:09 1547
   454  1.6287e-03  1.6211e-03  3.6291e-04  1.4459e-01  1.6282e-03  0:00:07 1546
   455  1.5431e-03  1.5667e-03  3.5418e-04  1.2967e-01  1.5425e-03  0:00:06 1545
   456  1.4570e-03  1.5110e-03  3.4580e-04  1.2487e-01  1.4564e-03  0:00:04 1544
   457  1.3714e-03  1.4545e-03  3.3780e-04  1.2652e-01  1.3708e-03  0:00:04 1543
   458  1.2863e-03  1.3974e-03  3.3014e-04  1.3006e-01  1.2856e-03  0:05:11 1542
   459  1.2010e-03  1.3399e-03  3.2281e-04  1.3230e-01  1.2004e-03  0:04:09 1541
   460  1.1156e-03  1.2822e-03  3.1587e-04  1.3130e-01  1.1149e-03  0:03:19 1540
   461  1.0302e-03  1.2245e-03  3.0927e-04  1.2554e-01  1.0294e-03  0:02:39 1539
   462  9.4478e-04  1.1669e-03  3.0305e-04  1.1414e-01  9.4399e-04  0:02:07 1538

  iter  continuity  x-velocity  y-velocity  z-velocity      energy     time/iter
   463  8.5991e-04  1.1098e-03  2.9719e-04  1.0089e-01  8.5905e-04  0:01:42 1537
   464  7.7632e-04  1.0531e-03  2.9167e-04  8.7308e-02  7.7538e-04  0:01:21 1536
   465  6.9500e-04  9.9686e-04  2.8663e-04  7.4407e-02  6.9398e-04  0:01:05 1535
   466  6.1748e-04  9.4193e-04  2.8208e-04  6.3300e-02  6.1636e-04  0:00:52 1534
   467  5.4450e-04  8.8855e-04  2.7786e-04  5.4519e-02  5.4324e-04  0:00:42 1533
   468  4.7782e-04  8.3726e-04  2.7406e-04  4.7909e-02  4.7643e-04  0:00:33 1532
   469  4.2115e-04  7.8830e-04  2.7074e-04  4.6000e-02  4.1960e-04  0:00:27 1531
   470  3.7916e-04  7.4217e-04  2.6796e-04  4.1984e-02  3.7748e-04  0:00:21 1530
   471  3.4490e-04  6.9966e-04  2.6573e-04  3.7718e-02  3.4310e-04  0:00:17 1529
   472  3.4067e-04  6.6158e-04  2.6408e-04  3.4719e-02  3.3890e-04  0:00:14 1528
   473  3.5992e-04  6.2880e-04  2.6299e-04  3.2853e-02  3.5829e-04  0:00:11 1527

  iter  continuity  x-velocity  y-velocity  z-velocity      energy     time/iter
   474  3.9482e-04  6.0220e-04  2.6248e-04  3.1272e-02  3.9338e-04  0:00:09 1526
   475  4.4381e-04  5.8255e-04  2.6255e-04  3.4597e-02  4.4256e-04  0:05:12 1525
   476  4.9844e-04  5.7039e-04  2.6324e-04  3.6371e-02  4.9735e-04  0:04:09 1524
   477  5.5627e-04  5.6626e-04  2.6448e-04  1.0268e-01  5.5532e-04  0:03:19 1523
   478  6.1619e-04  5.6965e-04  2.6607e-04  1.3228e-01  6.1535e-04  0:02:39 1522
   479  6.7749e-04  5.8008e-04  2.6800e-04  1.1865e-01  6.7675e-04  0:02:07 1521
   480  7.4069e-04  5.9677e-04  2.7021e-04  9.1417e-02  7.4002e-04  0:01:42 1520
   481  8.0503e-04  6.1880e-04  2.7269e-04  7.1561e-02  8.0444e-04  0:01:21 1519
   482  8.6949e-04  6.4528e-04  2.7539e-04  6.6956e-02  8.6895e-04  0:01:05 1518
   483  9.3381e-04  6.7542e-04  2.7827e-04  6.8660e-02  9.3332e-04  0:00:52 1517
   484  9.9758e-04  7.0832e-04  2.8125e-04  7.0513e-02  9.9713e-04  0:00:42 1516

  iter  continuity  x-velocity  y-velocity  z-velocity      energy     time/iter
   485  1.0609e-03  7.4323e-04  2.8430e-04  7.2754e-02  1.0605e-03  0:00:33 1515
   486  1.1233e-03  7.7932e-04  2.8735e-04  7.7261e-02  1.1230e-03  0:00:27 1514
   487  1.1848e-03  8.1617e-04  2.9037e-04  8.4014e-02  1.1844e-03  0:00:21 1513
   488  1.2446e-03  8.5337e-04  2.9335e-04  9.1680e-02  1.2443e-03  0:00:17 1512
   489  1.3049e-03  8.8941e-04  2.9571e-04  9.9274e-02  1.3046e-03  0:00:14 1511
   490  1.3657e-03  9.2560e-04  2.9817e-04  1.1303e-01  1.3654e-03  0:00:11 1510
   491  1.4204e-03  9.6224e-04  3.0028e-04  1.2078e-01  1.4201e-03  0:00:09 1509
   492  1.4669e-03  9.9772e-04  3.0275e-04  1.2039e-01  1.4666e-03  0:00:07 1508
   493  1.5064e-03  1.0318e-03  3.0547e-04  1.2256e-01  1.5061e-03  0:00:06 1507
   494  1.5411e-03  1.0646e-03  3.0802e-04  1.2976e-01  1.5409e-03  0:00:04 1506
   495  1.5709e-03  1.0958e-03  3.1016e-04  1.4010e-01  1.5706e-03  0:00:04 1505

  iter  continuity  x-velocity  y-velocity  z-velocity      energy     time/iter
   496  1.5982e-03  1.1253e-03  3.1187e-04  1.5195e-01  1.5979e-03  0:05:04 1504
   497  1.6238e-03  1.1529e-03  3.1324e-04  1.6396e-01  1.6236e-03  0:04:03 1503
   498  1.6474e-03  1.1784e-03  3.1432e-04  1.7422e-01  1.6472e-03  0:03:14 1502
   499  1.6685e-03  1.2018e-03  3.1508e-04  1.8355e-01  1.6683e-03  0:02:35 1501
   500  1.6870e-03  1.2230e-03  3.1548e-04  1.9105e-01  1.6868e-03  0:02:04 1500
   501  1.7031e-03  1.2419e-03  3.1546e-04  1.9669e-01  1.7029e-03  0:01:39 1499
   502  1.7169e-03  1.2584e-03  3.1499e-04  2.0111e-01  1.7167e-03  0:01:19 1498
   503  1.7284e-03  1.2725e-03  3.1408e-04  2.0459e-01  1.7282e-03  0:01:03 1497
   504  1.7373e-03  1.2844e-03  3.1272e-04  2.0821e-01  1.7371e-03  0:00:51 1496
   505  1.7434e-03  1.2940e-03  3.1094e-04  2.1177e-01  1.7432e-03  0:00:41 1495
   506  1.7466e-03  1.3014e-03  3.0875e-04  2.1520e-01  1.7464e-03  0:00:32 1494

  iter  continuity  x-velocity  y-velocity  z-velocity      energy     time/iter
   507  1.7471e-03  1.3068e-03  3.0619e-04  2.1844e-01  1.7469e-03  0:00:26 1493
   508  1.7449e-03  1.3102e-03  3.0330e-04  2.2290e-01  1.7448e-03  0:00:21 1492
   509  1.7407e-03  1.3117e-03  3.0007e-04  2.2600e-01  1.7405e-03  0:00:17 1491
   510  1.7345e-03  1.3114e-03  2.9658e-04  2.3386e-01  1.7344e-03  0:00:13 1490
   511  1.7245e-03  1.3092e-03  2.9293e-04  2.3548e-01  1.7244e-03  0:00:11 1489
   512  1.7121e-03  1.3052e-03  2.8916e-04  2.3327e-01  1.7119e-03  0:00:08 1488
   513  1.6965e-03  1.2995e-03  2.8532e-04  2.3734e-01  1.6964e-03  0:00:07 1487
   514  1.6781e-03  1.2922e-03  2.8136e-04  2.4360e-01  1.6780e-03  0:00:05 1486
   515  1.6571e-03  1.2830e-03  2.7730e-04  2.4948e-01  1.6570e-03  0:00:04 1485
   516  1.6339e-03  1.2723e-03  2.7317e-04  2.5373e-01  1.6337e-03  0:00:03 1484
   517  1.6088e-03  1.2602e-03  2.6908e-04  2.5617e-01  1.6086e-03  0:00:03 1483

  iter  continuity  x-velocity  y-velocity  z-velocity      energy     time/iter
   518  1.5819e-03  1.2464e-03  2.6495e-04  2.5737e-01  1.5817e-03  0:04:59 1482
   519  1.5525e-03  1.2313e-03  2.6089e-04  2.5661e-01  1.5523e-03  0:03:59 1481
   520  1.5200e-03  1.2150e-03  2.5666e-04  2.5016e-01  1.5199e-03  0:03:11 1480
   521  1.4848e-03  1.1979e-03  2.5230e-04  2.3786e-01  1.4847e-03  0:02:33 1479
   522  1.4487e-03  1.1796e-03  2.4786e-04  2.2285e-01  1.4485e-03  0:02:02 1478
   523  1.4117e-03  1.1601e-03  2.4336e-04  2.0496e-01  1.4115e-03  0:01:38 1477
   524  1.3733e-03  1.1393e-03  2.3883e-04  1.8396e-01  1.3731e-03  0:01:18 1476
   525  1.3335e-03  1.1174e-03  2.3427e-04  1.6150e-01  1.3333e-03  0:01:02 1475
   526  1.2920e-03  1.0944e-03  2.2968e-04  1.3913e-01  1.2918e-03  0:00:50 1474
   527  1.2489e-03  1.0705e-03  2.2506e-04  1.1910e-01  1.2488e-03  0:00:40 1473
   528  1.2045e-03  1.0455e-03  2.2043e-04  1.0309e-01  1.2043e-03  0:00:32 1472

  iter  continuity  x-velocity  y-velocity  z-velocity      energy     time/iter
   529  1.1581e-03  1.0196e-03  2.1573e-04  9.2677e-02  1.1579e-03  0:00:25 1471
   530  1.1105e-03  9.9303e-04  2.1106e-04  8.6302e-02  1.1103e-03  0:00:20 1470
   531  1.0622e-03  9.6580e-04  2.0648e-04  8.2883e-02  1.0619e-03  0:00:16 1469
   532  1.0130e-03  9.3796e-04  2.0196e-04  8.0057e-02  1.0128e-03  0:00:13 1468
   533  9.6294e-04  9.0954e-04  1.9748e-04  7.6526e-02  9.6270e-04  0:00:10 1467
   534  9.1200e-04  8.8061e-04  1.9306e-04  7.2312e-02  9.1175e-04  0:00:08 1466
   535  8.6033e-04  8.5117e-04  1.8872e-04  6.7564e-02  8.6007e-04  0:00:07 1465
   536  8.0824e-04  8.2128e-04  1.8449e-04  6.2972e-02  8.0796e-04  0:00:05 1464
   537  7.5591e-04  7.9098e-04  1.8038e-04  5.9018e-02  7.5562e-04  0:00:04 1463
   538  7.0352e-04  7.6037e-04  1.7641e-04  5.6027e-02  7.0321e-04  0:00:03 1462
   539  6.5110e-04  7.2954e-04  1.7258e-04  5.3699e-02  6.5077e-04  0:04:55 1461

  iter  continuity  x-velocity  y-velocity  z-velocity      energy     time/iter
   540  5.9889e-04  6.9861e-04  1.6892e-04  5.1737e-02  5.9854e-04  0:03:56 1460
   541  5.4915e-04  6.6767e-04  1.6543e-04  4.9893e-02  5.4877e-04  0:03:08 1459
   542  4.9895e-04  6.3681e-04  1.6212e-04  6.1055e-02  4.9853e-04  0:02:31 1458
   543  4.3733e-04  6.0624e-04  1.5904e-04  6.8173e-02  4.3686e-04  0:02:00 1457
   544  3.7431e-04  5.7639e-04  1.5624e-04  7.2613e-02  3.7377e-04  0:01:36 1456
   545  3.2118e-04  5.4664e-04  1.5372e-04  6.6507e-02  3.2055e-04  0:01:17 1455
   546  2.7829e-04  5.1739e-04  1.5147e-04  5.3743e-02  2.7758e-04  0:01:02 1454
   547  2.4139e-04  4.8892e-04  1.4947e-04  4.3618e-02  2.4058e-04  0:00:49 1453
   548  2.0859e-04  4.6146e-04  1.4772e-04  3.8058e-02  2.0767e-04  0:00:39 1452
   549  1.8207e-04  4.3524e-04  1.4624e-04  3.6989e-02  1.8102e-04  0:00:31 1451
   550  1.6625e-04  4.1051e-04  1.4502e-04  3.8095e-02  1.6512e-04  0:00:25 1450

  iter  continuity  x-velocity  y-velocity  z-velocity      energy     time/iter
   551  1.6430e-04  3.8759e-04  1.4409e-04  3.8680e-02  1.6318e-04  0:00:20 1449
   552  1.7587e-04  3.6679e-04  1.4343e-04  3.8552e-02  1.7483e-04  0:00:16 1448
   553  1.9809e-04  3.4842e-04  1.4302e-04  3.7948e-02  1.9718e-04  0:00:13 1447
   554  2.2791e-04  3.3282e-04  1.4285e-04  3.7455e-02  2.2713e-04  0:00:10 1446
   555  2.6252e-04  3.2034e-04  1.4292e-04  3.9308e-02  2.6185e-04  0:00:08 1445
   556  2.9939e-04  3.1123e-04  1.4319e-04  4.2121e-02  2.9882e-04  0:00:07 1444
   557  3.3710e-04  3.0568e-04  1.4365e-04  4.4783e-02  3.3659e-04  0:00:05 1443
   558  3.7504e-04  3.0374e-04  1.4429e-04  4.6578e-02  3.7459e-04  0:00:04 1442
   559  4.1300e-04  3.0537e-04  1.4510e-04  4.8906e-02  4.1260e-04  0:04:52 1441
   560  4.5075e-04  3.1037e-04  1.4607e-04  4.8493e-02  4.5038e-04  0:03:53 1440
   561  4.8794e-04  3.1843e-04  1.4719e-04  4.6453e-02  4.8761e-04  0:03:06 1439

  iter  continuity  x-velocity  y-velocity  z-velocity      energy     time/iter
   562  5.2427e-04  3.2905e-04  1.4845e-04  4.4065e-02  5.2397e-04  0:02:29 1438
   563  5.5951e-04  3.4191e-04  1.4983e-04  4.5140e-02  5.5923e-04  0:01:59 1437
   564  5.9356e-04  3.5673e-04  1.5132e-04  7.4660e-02  5.9330e-04  0:01:35 1436
   565  6.2635e-04  3.7315e-04  1.5289e-04  6.2588e-02  6.2611e-04  0:01:16 1435
   566  6.5790e-04  3.9076e-04  1.5453e-04  5.0725e-02  6.5767e-04  0:01:01 1434
   567  6.8820e-04  4.0924e-04  1.5624e-04  4.4817e-02  6.8799e-04  0:00:49 1433
   568  7.1726e-04  4.2832e-04  1.5798e-04  4.1637e-02  7.1706e-04  0:00:39 1432
   569  7.4508e-04  4.4778e-04  1.5974e-04  3.9828e-02  7.4489e-04  0:00:31 1431
   570  7.7165e-04  4.6741e-04  1.6150e-04  3.9200e-02  7.7147e-04  0:00:25 1430
   571  7.9670e-04  4.8704e-04  1.6324e-04  3.9556e-02  7.9652e-04  0:00:20 1429
   572  8.2031e-04  5.0654e-04  1.6495e-04  4.0630e-02  8.2013e-04  0:00:16 1428

  iter  continuity  x-velocity  y-velocity  z-velocity      energy     time/iter
   573  8.4278e-04  5.2577e-04  1.6660e-04  4.2168e-02  8.4261e-04  0:00:13 1427
   574  8.6446e-04  5.4462e-04  1.6818e-04  4.3907e-02  8.6429e-04  0:00:10 1426
   575  8.8552e-04  5.6301e-04  1.6968e-04  4.4253e-02  8.8536e-04  0:00:08 1425
   576  9.0459e-04  5.8083e-04  1.7110e-04  4.5316e-02  9.0444e-04  0:00:06 1424
   577  9.2159e-04  5.9801e-04  1.7241e-04  4.7018e-02  9.2145e-04  0:00:05 1423
   578  9.3689e-04  6.1453e-04  1.7360e-04  4.7978e-02  9.3675e-04  0:00:04 1422
   579  9.5119e-04  6.3033e-04  1.7468e-04  4.7335e-02  9.5105e-04  0:00:03 1421
   580  9.6469e-04  6.4536e-04  1.7561e-04  4.6118e-02  9.6455e-04  0:00:03 1420
   581  9.7719e-04  6.5959e-04  1.7641e-04  4.4951e-02  9.7706e-04  0:04:46 1419
   582  9.8834e-04  6.7296e-04  1.7705e-04  4.4121e-02  9.8821e-04  0:03:49 1418
   583  9.9787e-04  6.8547e-04  1.7756e-04  7.3876e-02  9.9775e-04  0:03:03 1417

  iter  continuity  x-velocity  y-velocity  z-velocity      energy     time/iter
   584  1.0057e-03  6.9709e-04  1.7792e-04  6.7282e-02  1.0055e-03  0:02:26 1416
   585  1.0117e-03  7.0785e-04  1.7814e-04  5.8231e-02  1.0116e-03  0:01:57 1415
   586  1.0162e-03  7.1770e-04  1.7823e-04  5.2492e-02  1.0161e-03  0:01:33 1414
   587  1.0190e-03  7.2661e-04  1.7820e-04  5.2267e-02  1.0189e-03  0:01:15 1413
   588  1.0204e-03  7.3450e-04  1.7795e-04  5.8597e-02  1.0203e-03  0:01:00 1412
   589  1.0203e-03  7.4123e-04  1.7753e-04  6.0784e-02  1.0202e-03  0:00:48 1411
   590  1.0188e-03  7.4682e-04  1.7699e-04  6.0717e-02  1.0187e-03  0:00:38 1410
   591  1.0160e-03  7.5132e-04  1.7629e-04  5.9583e-02  1.0159e-03  0:00:30 1409
   592  1.0118e-03  7.5475e-04  1.7543e-04  5.5880e-02  1.0117e-03  0:00:24 1408
   593  1.0063e-03  7.5713e-04  1.7442e-04  5.3622e-02  1.0062e-03  0:00:19 1407
   594  9.9874e-04  7.5845e-04  1.7325e-04  5.2638e-02  9.9863e-04  0:00:16 1406

  iter  continuity  x-velocity  y-velocity  z-velocity      energy     time/iter
   595  9.8496e-04  7.5870e-04  1.7187e-04  5.4057e-02  9.8485e-04  0:00:12 1405
   596  9.7076e-04  7.5787e-04  1.7036e-04  6.1164e-02  9.7065e-04  0:00:10 1404
   597  9.6286e-04  7.5602e-04  1.6875e-04  7.0436e-02  9.6275e-04  0:00:08 1403
   598  9.5840e-04  7.5310e-04  1.6703e-04  7.0266e-02  9.5829e-04  0:00:06 1402
   599  9.5295e-04  7.4884e-04  1.6518e-04  7.0194e-02  9.5284e-04  0:00:05 1401
   600  9.4395e-04  7.4387e-04  1.6319e-04  7.4194e-02  9.4384e-04  0:00:04 1400
   601  9.3081e-04  7.3806e-04  1.6108e-04  7.2393e-02  9.3071e-04  0:00:03 1399
   602  9.1417e-04  7.3135e-04  1.5888e-04  6.8801e-02  9.1406e-04  0:04:42 1398
   603  8.9498e-04  7.2382e-04  1.5660e-04  6.4972e-02  8.9487e-04  0:03:46 1397
   604  8.7405e-04  7.1547e-04  1.5424e-04  6.1483e-02  8.7394e-04  0:03:00 1396
   605  8.5197e-04  7.0626e-04  1.5183e-04  5.8666e-02  8.5185e-04  0:02:24 1395

  iter  continuity  x-velocity  y-velocity  z-velocity      energy     time/iter
   606  8.2883e-04  6.9619e-04  1.4935e-04  5.6954e-02  8.2871e-04  0:01:55 1394
   607  8.0490e-04  6.8525e-04  1.4682e-04  5.6313e-02  8.0478e-04  0:01:32 1393
   608  7.8059e-04  6.7344e-04  1.4425e-04  5.6795e-02  7.8047e-04  0:01:14 1392
   609  7.5608e-04  6.6080e-04  1.4164e-04  5.7836e-02  7.5596e-04  0:00:59 1391
   610  7.3135e-04  6.4738e-04  1.3899e-04  5.8927e-02  7.3122e-04  0:00:47 1390
   611  7.0629e-04  6.3324e-04  1.3627e-04  5.9759e-02  7.0615e-04  0:00:38 1389
   612  6.8073e-04  6.1837e-04  1.3353e-04  5.9993e-02  6.8059e-04  0:00:30 1388
   613  6.5455e-04  6.0284e-04  1.3075e-04  5.9467e-02  6.5441e-04  0:00:24 1387
   614  6.2773e-04  5.8668e-04  1.2794e-04  5.8058e-02  6.2758e-04  0:00:19 1386
   615  6.0011e-04  5.6993e-04  1.2514e-04  5.6454e-02  5.9996e-04  0:00:15 1385
   616  5.7164e-04  5.5259e-04  1.2233e-04  5.6009e-02  5.7148e-04  0:00:12 1384

  iter  continuity  x-velocity  y-velocity  z-velocity      energy     time/iter
   617  5.4243e-04  5.3475e-04  1.1951e-04  5.6583e-02  5.4227e-04  0:00:10 1383
   618  5.1256e-04  5.1643e-04  1.1671e-04  5.6484e-02  5.1239e-04  0:00:08 1382
   619  4.8223e-04  4.9768e-04  1.1394e-04  5.5345e-02  4.8205e-04  0:00:06 1381
   620  4.5131e-04  4.7856e-04  1.1125e-04  5.3349e-02  4.5112e-04  0:00:05 1380
   621  4.1902e-04  4.5914e-04  1.0864e-04  5.1452e-02  4.1882e-04  0:00:04 1379
   622  3.8902e-04  4.3949e-04  1.0615e-04  5.1951e-02  3.8880e-04  0:04:39 1378
   623  3.6102e-04  4.1969e-04  1.0379e-04  5.3850e-02  3.6079e-04  0:03:43 1377
   624  3.3363e-04  3.9983e-04  1.0156e-04  5.6239e-02  3.3339e-04  0:02:58 1376
   625  3.0621e-04  3.8002e-04  9.9482e-05  6.0150e-02  3.0595e-04  0:02:22 1375
   626  2.7857e-04  3.6037e-04  9.7570e-05  6.5860e-02  2.7829e-04  0:01:54 1374
   627  2.5081e-04  3.4095e-04  9.5833e-05  7.2142e-02  2.5050e-04  0:01:31 1373

  iter  continuity  x-velocity  y-velocity  z-velocity      energy     time/iter
   628  2.2322e-04  3.2193e-04  9.4275e-05  7.8216e-02  2.2288e-04  0:01:13 1372
   629  1.9632e-04  3.0346e-04  9.2900e-05  8.3500e-02  1.9593e-04  0:00:58 1371
   630  1.7087e-04  2.8568e-04  9.1709e-05  8.8020e-02  1.7043e-04  0:00:47 1370
   631  1.4803e-04  2.6875e-04  9.0703e-05  9.1610e-02  1.4754e-04  0:00:37 1369
   632  1.2949e-04  2.5284e-04  8.9881e-05  9.4581e-02  1.2893e-04  0:00:30 1368
   633  1.1736e-04  2.3817e-04  8.9241e-05  9.6913e-02  1.1676e-04  0:00:24 1367
   634  1.1355e-04  2.2500e-04  8.8776e-05  9.8575e-02  1.1294e-04  0:00:19 1366
   635  1.1868e-04  2.1359e-04  8.8485e-05  1.0488e-01  1.1811e-04  0:00:15 1365
   636  1.3115e-04  2.0416e-04  8.8362e-05  1.0460e-01  1.3065e-04  0:00:12 1364
   637  1.4886e-04  1.9696e-04  8.8395e-05  1.0317e-01  1.4843e-04  0:00:10 1363
   638  1.6990e-04  1.9219e-04  8.8580e-05  1.0272e-01  1.6953e-04  0:00:08 1362

  iter  continuity  x-velocity  y-velocity  z-velocity      energy     time/iter
   639  1.9285e-04  1.8998e-04  8.8911e-05  1.0209e-01  1.9253e-04  0:00:06 1361
   640  2.1678e-04  1.9031e-04  8.9380e-05  1.0119e-01  2.1650e-04  0:00:05 1360
   641  2.4113e-04  1.9306e-04  8.9973e-05  1.0034e-01  2.4088e-04  0:00:04 1359
   642  2.6575e-04  1.9800e-04  9.0677e-05  9.9756e-02  2.6553e-04  0:00:03 1358
   643  2.9032e-04  2.0487e-04  9.1475e-05  1.0045e-01  2.9013e-04  0:00:03 1357
   644  3.1518e-04  2.1332e-04  9.2358e-05  1.0368e-01  3.1500e-04  0:04:33 1356
   645  3.3963e-04  2.2306e-04  9.3299e-05  1.0507e-01  3.3947e-04  0:03:38 1355
   646  3.6312e-04  2.3386e-04  9.4286e-05  1.0598e-01  3.6297e-04  0:02:55 1354
   647  3.8542e-04  2.4542e-04  9.5303e-05  1.0801e-01  3.8528e-04  0:02:20 1353
   648  4.0649e-04  2.5747e-04  9.6337e-05  1.1121e-01  4.0636e-04  0:01:52 1352
   649  4.2636e-04  2.6981e-04  9.7374e-05  1.1489e-01  4.2624e-04  0:01:29 1351

  iter  continuity  x-velocity  y-velocity  z-velocity      energy     time/iter
   650  4.4508e-04  2.8224e-04  9.8399e-05  1.1779e-01  4.4497e-04  0:01:11 1350
   651  4.6269e-04  2.9463e-04  9.9398e-05  1.1835e-01  4.6259e-04  0:00:57 1349
   652  4.7926e-04  3.0684e-04  1.0035e-04  1.1566e-01  4.7916e-04  0:00:46 1348
   653  4.9485e-04  3.1878e-04  1.0125e-04  1.0953e-01  4.9476e-04  0:00:36 1347
   654  5.0953e-04  3.3036e-04  1.0208e-04  1.0066e-01  5.0944e-04  0:00:29 1346
   655  5.2334e-04  3.4153e-04  1.0284e-04  8.9447e-02  5.2325e-04  0:00:23 1345
   656  5.3630e-04  3.5224e-04  1.0353e-04  7.7529e-02  5.3622e-04  0:00:19 1344
   657  5.4844e-04  3.6244e-04  1.0413e-04  6.5865e-02  5.4836e-04  0:00:15 1343
   658  5.5974e-04  3.7210e-04  1.0460e-04  5.6895e-02  5.5966e-04  0:00:12 1342
   659  5.7016e-04  3.8120e-04  1.0497e-04  5.2325e-02  5.7009e-04  0:00:10 1341
   660  5.7966e-04  3.8972e-04  1.0523e-04  5.3086e-02  5.7959e-04  0:00:08 1340

  iter  continuity  x-velocity  y-velocity  z-velocity      energy     time/iter
   661  5.8818e-04  3.9767e-04  1.0539e-04  5.7878e-02  5.8811e-04  0:00:06 1339
   662  5.9571e-04  4.0502e-04  1.0546e-04  6.4272e-02  5.9564e-04  0:00:05 1338
   663  6.0219e-04  4.1178e-04  1.0544e-04  7.0655e-02  6.0212e-04  0:00:04 1337
   664  6.0760e-04  4.1795e-04  1.0532e-04  7.6488e-02  6.0753e-04  0:00:03 1336
   665  6.1193e-04  4.2352e-04  1.0512e-04  8.1578e-02  6.1187e-04  0:04:29 1335
   666  6.1519e-04  4.2848e-04  1.0485e-04  8.5904e-02  6.1512e-04  0:03:35 1334
   667  6.1738e-04  4.3283e-04  1.0450e-04  8.9345e-02  6.1732e-04  0:02:52 1333
   668  6.1853e-04  4.3657e-04  1.0409e-04  9.1992e-02  6.1847e-04  0:02:18 1332
   669  6.1865e-04  4.3971e-04  1.0361e-04  9.4119e-02  6.1859e-04  0:01:50 1331
   670  6.1778e-04  4.4223e-04  1.0307e-04  9.5595e-02  6.1772e-04  0:01:28 1330
   671  6.1593e-04  4.4413e-04  1.0247e-04  9.6422e-02  6.1587e-04  0:01:10 1329

  iter  continuity  x-velocity  y-velocity  z-velocity      energy     time/iter
   672  6.1315e-04  4.4540e-04  1.0179e-04  9.6837e-02  6.1310e-04  0:00:56 1328
   673  6.0948e-04  4.4605e-04  1.0103e-04  9.6778e-02  6.0943e-04  0:00:45 1327
   674  6.0494e-04  4.4607e-04  1.0022e-04  9.6382e-02  6.0489e-04  0:00:36 1326
   675  5.9955e-04  4.4549e-04  9.9322e-05  9.5839e-02  5.9950e-04  0:00:29 1325
   676  5.9331e-04  4.4432e-04  9.8342e-05  9.5133e-02  5.9326e-04  0:00:23 1324
   677  5.8623e-04  4.4257e-04  9.7290e-05  9.4354e-02  5.8617e-04  0:00:18 1323
   678  5.7831e-04  4.4022e-04  9.6160e-05  9.3646e-02  5.7825e-04  0:00:15 1322
   679  5.6960e-04  4.3731e-04  9.4971e-05  9.2993e-02  5.6954e-04  0:00:12 1321
   680  5.6013e-04  4.3382e-04  9.3723e-05  9.2025e-02  5.6007e-04  0:00:09 1320
   681  5.4996e-04  4.2975e-04  9.2414e-05  9.0911e-02  5.4990e-04  0:00:07 1319
   682  5.3915e-04  4.2513e-04  9.1047e-05  8.9799e-02  5.3909e-04  0:04:30 1318

  iter  continuity  x-velocity  y-velocity  z-velocity      energy     time/iter
   683  5.2774e-04  4.1999e-04  8.9625e-05  8.8810e-02  5.2768e-04  0:03:36 1317
   684  5.1578e-04  4.1434e-04  8.8155e-05  8.7996e-02  5.1572e-04  0:02:52 1316
   685  5.0327e-04  4.0823e-04  8.6643e-05  8.7384e-02  5.0321e-04  0:02:18 1315
   686  4.9022e-04  4.0165e-04  8.5088e-05  8.7014e-02  4.9016e-04  0:01:50 1314
   687  4.7664e-04  3.9465e-04  8.3496e-05  8.6872e-02  4.7657e-04  0:01:28 1313
   688  4.6251e-04  3.8724e-04  8.1874e-05  8.6590e-02  4.6245e-04  0:01:10 1312
   689  4.4786e-04  3.7945e-04  8.0229e-05  8.6617e-02  4.4779e-04  0:00:56 1311
   690  4.3272e-04  3.7131e-04  7.8567e-05  8.7762e-02  4.3265e-04  0:00:45 1310
   691  4.1715e-04  3.6285e-04  7.6895e-05  8.7351e-02  4.1708e-04  0:00:36 1309
   692  4.0118e-04  3.5406e-04  7.5221e-05  8.5907e-02  4.0111e-04  0:00:29 1308
   693  3.8486e-04  3.4497e-04  7.3555e-05  8.4227e-02  3.8478e-04  0:00:23 1307

  iter  continuity  x-velocity  y-velocity  z-velocity      energy     time/iter
   694  3.6821e-04  3.3560e-04  7.1904e-05  8.2596e-02  3.6813e-04  0:00:18 1306
   695  3.5127e-04  3.2597e-04  7.0275e-05  8.1288e-02  3.5119e-04  0:00:15 1305
   696  3.3410e-04  3.1608e-04  6.8676e-05  8.0097e-02  3.3401e-04  0:00:12 1304
   697  3.1673e-04  3.0599e-04  6.7117e-05  8.2499e-02  3.1664e-04  0:00:09 1303
   698  2.9920e-04  2.9566e-04  6.5601e-05  1.0043e-01  2.9911e-04  0:00:07 1302
   699  2.8155e-04  2.8521e-04  6.4127e-05  1.0351e-01  2.8145e-04  0:00:06 1301
   700  2.6380e-04  2.7468e-04  6.2689e-05  9.7611e-02  2.6369e-04  0:00:05 1300
   701  2.4599e-04  2.6410e-04  6.1298e-05  9.2366e-02  2.4588e-04  0:04:24 1299
   702  2.2817e-04  2.5344e-04  5.9966e-05  8.7916e-02  2.2805e-04  0:03:31 1298
   703  2.1038e-04  2.4272e-04  5.8701e-05  8.3864e-02  2.1026e-04  0:02:48 1297
   704  1.9269e-04  2.3197e-04  5.7506e-05  8.0293e-02  1.9255e-04  0:02:15 1296

  iter  continuity  x-velocity  y-velocity  z-velocity      energy     time/iter
   705  1.7511e-04  2.2124e-04  5.6382e-05  7.7681e-02  1.7497e-04  0:01:48 1295
   706  1.5780e-04  2.1058e-04  5.5336e-05  7.5566e-02  1.5764e-04  0:01:26 1294
   707  1.4084e-04  2.0004e-04  5.4373e-05  7.3606e-02  1.4067e-04  0:01:09 1293
   708  1.2438e-04  1.8965e-04  5.3500e-05  7.1768e-02  1.2418e-04  0:00:55 1292
   709  1.0864e-04  1.7947e-04  5.2720e-05  7.0257e-02  1.0842e-04  0:00:44 1291
   710  9.3938e-05  1.6956e-04  5.2034e-05  6.9179e-02  9.3684e-05  0:00:35 1290
   711  8.0782e-05  1.6000e-04  5.1446e-05  6.8248e-02  8.0491e-05  0:00:28 1289
   712  6.9939e-05  1.5088e-04  5.0955e-05  6.7347e-02  6.9607e-05  0:00:22 1288
   713  6.2470e-05  1.4228e-04  5.0561e-05  6.6555e-02  6.2103e-05  0:00:18 1287
   714  5.9502e-05  1.3432e-04  5.0265e-05  6.5904e-02  5.9121e-05  0:00:14 1286
   715  6.1926e-05  1.2711e-04  5.0065e-05  6.5484e-02  6.1565e-05  0:00:11 1285

  iter  continuity  x-velocity  y-velocity  z-velocity      energy     time/iter
   716  6.8590e-05  1.2080e-04  4.9961e-05  6.5142e-02  6.8269e-05  0:00:09 1284
   717  7.8382e-05  1.1550e-04  4.9945e-05  6.6895e-02  7.8105e-05  0:00:07 1283
   718  8.9815e-05  1.1134e-04  5.0013e-05  7.0641e-02  8.9577e-05  0:00:06 1282
   719  1.0206e-04  1.0842e-04  5.0161e-05  7.3387e-02  1.0185e-04  0:00:05 1281
   720  1.1488e-04  1.0679e-04  5.0385e-05  7.3442e-02  1.1470e-04  0:00:04 1280
   721  1.2792e-04  1.0649e-04  5.0675e-05  7.2069e-02  1.2776e-04  0:04:19 1279
   722  1.4141e-04  1.0747e-04  5.1027e-05  7.0535e-02  1.4127e-04  0:03:27 1278
   723  1.5601e-04  1.0966e-04  5.1436e-05  6.8615e-02  1.5588e-04  0:02:45 1277
   724  1.7034e-04  1.1292e-04  5.1891e-05  6.6394e-02  1.7023e-04  0:02:12 1276
   725  1.8358e-04  1.1711e-04  5.2382e-05  6.5450e-02  1.8347e-04  0:01:46 1275
   726  1.9569e-04  1.2206e-04  5.2902e-05  6.6324e-02  1.9559e-04  0:01:24 1274

  iter  continuity  x-velocity  y-velocity  z-velocity      energy     time/iter
   727  2.0723e-04  1.2759e-04  5.3438e-05  6.7978e-02  2.0713e-04  0:01:08 1273
   728  2.1865e-04  1.3363e-04  5.3996e-05  7.1179e-02  2.1857e-04  0:00:54 1272
   729  2.2998e-04  1.4001e-04  5.4566e-05  8.1700e-02  2.2990e-04  0:00:43 1271
   730  2.4101e-04  1.4664e-04  5.5141e-05  9.2020e-02  2.4094e-04  0:00:34 1270
   731  2.5156e-04  1.5342e-04  5.5712e-05  9.3971e-02  2.5149e-04  0:00:28 1269
   732  2.6160e-04  1.6029e-04  5.6276e-05  9.3123e-02  2.6154e-04  0:00:22 1268
   733  2.7120e-04  1.6717e-04  5.6828e-05  8.1806e-02  2.7113e-04  0:00:18 1267
   734  2.8039e-04  1.7400e-04  5.7363e-05  7.4852e-02  2.8033e-04  0:00:14 1266
   735  2.8916e-04  1.8075e-04  5.7877e-05  7.1454e-02  2.8910e-04  0:00:11 1265
   736  2.9745e-04  1.8737e-04  5.8367e-05  6.9245e-02  2.9740e-04  0:00:09 1264
   737  3.0522e-04  1.9383e-04  5.8829e-05  6.7214e-02  3.0517e-04  0:00:07 1263

  iter  continuity  x-velocity  y-velocity  z-velocity      energy     time/iter
   738  3.1243e-04  2.0010e-04  5.9260e-05  6.4809e-02  3.1238e-04  0:04:18 1262
   739  3.1909e-04  2.0616e-04  5.9658e-05  6.1909e-02  3.1904e-04  0:03:26 1261
   740  3.2519e-04  2.1198e-04  6.0020e-05  5.8740e-02  3.2515e-04  0:02:45 1260
   741  3.3073e-04  2.1753e-04  6.0344e-05  5.5577e-02  3.3069e-04  0:02:12 1259
   742  3.3571e-04  2.2281e-04  6.0627e-05  5.2660e-02  3.3567e-04  0:01:45 1258
   743  3.4012e-04  2.2779e-04  6.0868e-05  5.0126e-02  3.4008e-04  0:01:24 1257
   744  3.4398e-04  2.3246e-04  6.1064e-05  4.8001e-02  3.4394e-04  0:01:07 1256
   745  3.4730e-04  2.3681e-04  6.1214e-05  4.6240e-02  3.4726e-04  0:00:54 1255
   746  3.5008e-04  2.4083e-04  6.1315e-05  4.4790e-02  3.5004e-04  0:00:43 1254
   747  3.5235e-04  2.4450e-04  6.1366e-05  4.3632e-02  3.5231e-04  0:00:34 1253
   748  3.5409e-04  2.4783e-04  6.1366e-05  4.3047e-02  3.5405e-04  0:00:27 1252

  iter  continuity  x-velocity  y-velocity  z-velocity      energy     time/iter
   749  3.5532e-04  2.5080e-04  6.1314e-05  4.2648e-02  3.5529e-04  0:00:22 1251
   750  3.5606e-04  2.5341e-04  6.1208e-05  4.2657e-02  3.5602e-04  0:00:18 1250
   751  3.5630e-04  2.5566e-04  6.1050e-05  4.3616e-02  3.5626e-04  0:00:14 1249
   752  3.5605e-04  2.5755e-04  6.0837e-05  4.4679e-02  3.5601e-04  0:00:11 1248
   753  3.5531e-04  2.5907e-04  6.0571e-05  4.5456e-02  3.5528e-04  0:00:09 1247
   754  3.5408e-04  2.6022e-04  6.0253e-05  4.6020e-02  3.5405e-04  0:00:07 1246
   755  3.5235e-04  2.6101e-04  5.9886e-05  4.6235e-02  3.5231e-04  0:00:06 1245
   756  3.5002e-04  2.6143e-04  5.9469e-05  4.6227e-02  3.4999e-04  0:00:05 1244
   757  3.4737e-04  2.6149e-04  5.9005e-05  4.6241e-02  3.4733e-04  0:00:04 1243
   758  3.4455e-04  2.6119e-04  5.8496e-05  4.6554e-02  3.4452e-04  0:00:03 1242
   759  3.4138e-04  2.6053e-04  5.7941e-05  4.7441e-02  3.4134e-04  0:04:11 1241

  iter  continuity  x-velocity  y-velocity  z-velocity      energy     time/iter
   760  3.3770e-04  2.5953e-04  5.7344e-05  4.9174e-02  3.3767e-04  0:03:20 1240
   761  3.3347e-04  2.5818e-04  5.6704e-05  5.1846e-02  3.3343e-04  0:02:40 1239
   762  3.2868e-04  2.5648e-04  5.6025e-05  5.5333e-02  3.2865e-04  0:02:08 1238
   763  3.2338e-04  2.5446e-04  5.5307e-05  5.9417e-02  3.2334e-04  0:01:42 1237
   764  3.1758e-04  2.5210e-04  5.4556e-05  6.3875e-02  3.1755e-04  0:01:22 1236
   765  3.1134e-04  2.4942e-04  5.3777e-05  6.8626e-02  3.1130e-04  0:01:05 1235
   766  3.0468e-04  2.4643e-04  5.2956e-05  7.3594e-02  3.0465e-04  0:00:52 1234
   767  2.9755e-04  2.4314e-04  5.2106e-05  7.8191e-02  2.9752e-04  0:00:42 1233
   768  2.9031e-04  2.3955e-04  5.1234e-05  8.2279e-02  2.9028e-04  0:00:33 1232
   769  2.8289e-04  2.3567e-04  5.0340e-05  8.5119e-02  2.8285e-04  0:00:27 1231
   770  2.7516e-04  2.3150e-04  4.9425e-05  8.6565e-02  2.7512e-04  0:00:21 1230

  iter  continuity  x-velocity  y-velocity  z-velocity      energy     time/iter
   771  2.6709e-04  2.2708e-04  4.8497e-05  8.7164e-02  2.6705e-04  0:00:17 1229
   772  2.5867e-04  2.2240e-04  4.7558e-05  8.7261e-02  2.5863e-04  0:00:14 1228
   773  2.4994e-04  2.1748e-04  4.6606e-05  8.6887e-02  2.4990e-04  0:00:11 1227
   774  2.4089e-04  2.1232e-04  4.5640e-05  8.5859e-02  2.4084e-04  0:00:09 1226
   775  2.3153e-04  2.0695e-04  4.4665e-05  8.3915e-02  2.3149e-04  0:00:07 1225
   776  2.2192e-04  2.0138e-04  4.3685e-05  8.1044e-02  2.2187e-04  0:00:06 1224
   777  2.1206e-04  1.9562e-04  4.2706e-05  7.7525e-02  2.1201e-04  0:00:04 1223
   778  2.0198e-04  1.8969e-04  4.1735e-05  7.3146e-02  2.0193e-04  0:04:08 1222
   779  1.9172e-04  1.8360e-04  4.0775e-05  6.8360e-02  1.9167e-04  0:03:18 1221
   780  1.8131e-04  1.7738e-04  3.9831e-05  6.3789e-02  1.8125e-04  0:02:38 1220
   781  1.7078e-04  1.7103e-04  3.8908e-05  6.0042e-02  1.7072e-04  0:02:07 1219

  iter  continuity  x-velocity  y-velocity  z-velocity      energy     time/iter
   782  1.6018e-04  1.6458e-04  3.8010e-05  5.7400e-02  1.6012e-04  0:01:41 1218
   783  1.4955e-04  1.5805e-04  3.7142e-05  5.5336e-02  1.4949e-04  0:01:21 1217
   784  1.3893e-04  1.5145e-04  3.6309e-05  5.4039e-02  1.3886e-04  0:01:05 1216
   785  1.2834e-04  1.4481e-04  3.5514e-05  5.3558e-02  1.2827e-04  0:00:52 1215
   786  1.1781e-04  1.3816e-04  3.4762e-05  5.3815e-02  1.1773e-04  0:00:41 1214
   787  1.0738e-04  1.3152e-04  3.4057e-05  5.4679e-02  1.0730e-04  0:00:33 1213
   788  9.7072e-05  1.2493e-04  3.3402e-05  5.6039e-02  9.6977e-05  0:00:26 1212
   789  8.6939e-05  1.1842e-04  3.2800e-05  5.7791e-02  8.6835e-05  0:00:21 1211
   790  7.7070e-05  1.1202e-04  3.2253e-05  5.9815e-02  7.6954e-05  0:00:17 1210
   791  6.7593e-05  1.0576e-04  3.1766e-05  6.2008e-02  6.7463e-05  0:00:13 1209
   792  5.8711e-05  9.9701e-05  3.1341e-05  6.4244e-02  5.8564e-05  0:00:11 1208

  iter  continuity  x-velocity  y-velocity  z-velocity      energy     time/iter
   793  5.0739e-05  9.3888e-05  3.0979e-05  6.6362e-02  5.0571e-05  0:00:09 1207
   794  4.4147e-05  8.8381e-05  3.0679e-05  6.8223e-02  4.3958e-05  0:00:07 1206
   795  3.9579e-05  8.3250e-05  3.0441e-05  6.9742e-02  3.9371e-05  0:00:06 1205
   796  3.7684e-05  7.8572e-05  3.0266e-05  7.0853e-02  3.7469e-05  0:00:04 1204
   797  3.8743e-05  7.4431e-05  3.0152e-05  7.1621e-02  3.8538e-05  0:00:04 1203
   798  4.2415e-05  7.0914e-05  3.0096e-05  7.2113e-02  4.2231e-05  0:04:03 1202
   799  4.7986e-05  6.8105e-05  3.0095e-05  7.2412e-02  4.7827e-05  0:03:14 1201
   800  5.4772e-05  6.6076e-05  3.0147e-05  7.2606e-02  5.4635e-05  0:02:35 1200
   801  6.2276e-05  6.4874e-05  3.0247e-05  7.2782e-02  6.2158e-05  0:02:04 1199
   802  7.0178e-05  6.4515e-05  3.0390e-05  7.3011e-02  7.0076e-05  0:01:39 1198
   803  7.8274e-05  6.4980e-05  3.0573e-05  7.3336e-02  7.8184e-05  0:01:19 1197

  iter  continuity  x-velocity  y-velocity  z-velocity      energy     time/iter
   804  8.6431e-05  6.6211e-05  3.0790e-05  7.3780e-02  8.6351e-05  0:01:03 1196
   805  9.4558e-05  6.8129e-05  3.1036e-05  7.4403e-02  9.4486e-05  0:00:51 1195
   806  1.0259e-04  7.0635e-05  3.1307e-05  7.5151e-02  1.0252e-04  0:00:41 1194
   807  1.1048e-04  7.3626e-05  3.1597e-05  7.5979e-02  1.1042e-04  0:00:32 1193
   808  1.1818e-04  7.7004e-05  3.1902e-05  7.6862e-02  1.1813e-04  0:00:26 1192
   809  1.2567e-04  8.0676e-05  3.2218e-05  7.7790e-02  1.2562e-04  0:00:21 1191
[...]

  iter  continuity  x-velocity  y-velocity  z-velocity      energy     time/iter
  1794  5.6783e-06  5.5792e-06  2.4039e-06  6.9317e-01  5.6772e-06  0:00:42  206
  1795  5.6572e-06  5.5587e-06  2.3947e-06  6.9051e-01  5.6560e-06  0:00:33  205
  1796  5.6362e-06  5.5383e-06  2.3855e-06  6.8786e-01  5.6351e-06  0:00:26  204
  1797  5.6155e-06  5.5180e-06  2.3763e-06  6.8524e-01  5.6144e-06  0:00:21  203
  1798  5.5950e-06  5.4979e-06  2.3671e-06  6.8264e-01  5.5939e-06  0:00:17  202
  1799  5.5747e-06  5.4778e-06  2.3579e-06  6.8006e-01  5.5736e-06  0:00:13  201
  1800  5.5545e-06  5.4579e-06  2.3488e-06  6.7750e-01  5.5534e-06  0:00:11  200
  1801  5.5344e-06  5.4381e-06  2.3397e-06  6.7495e-01  5.5333e-06  0:00:08  199
  1802  5.5143e-06  5.4184e-06  2.3308e-06  6.7242e-01  5.5132e-06  0:00:07  198
  1803  5.4943e-06  5.3987e-06  2.3218e-06  6.6990e-01  5.4933e-06  0:00:05  197
  1804  5.4744e-06  5.3791e-06  2.3130e-06  6.6740e-01  5.4733e-06  0:00:04  196

  iter  continuity  x-velocity  y-velocity  z-velocity      energy     time/iter
  1805  5.4546e-06  5.3595e-06  2.3042e-06  6.6491e-01  5.4535e-06  0:00:03  195
  1806  5.4348e-06  5.3400e-06  2.2955e-06  6.6243e-01  5.4337e-06  0:00:03  194
  1807  5.4150e-06  5.3205e-06  2.2869e-06  6.5996e-01  5.4140e-06  0:00:02  193
  1808  5.3954e-06  5.3011e-06  2.2783e-06  6.5750e-01  5.3943e-06  0:00:02  192
  1809  5.3758e-06  5.2817e-06  2.2697e-06  6.5505e-01  5.3747e-06  0:00:01  191
  1810  5.3563e-06  5.2624e-06  2.2611e-06  6.5260e-01  5.3552e-06  0:00:01  190
  1811  5.3368e-06  5.2430e-06  2.2525e-06  6.5017e-01  5.3357e-06  0:00:01  189
  1812  5.3174e-06  5.2238e-06  2.2440e-06  6.4774e-01  5.3163e-06  0:00:01  188
  1813  5.2980e-06  5.2045e-06  2.2354e-06  6.4532e-01  5.2969e-06  0:00:01  187
  1814  5.2786e-06  5.1853e-06  2.2269e-06  6.4291e-01  5.2775e-06  0:00:00  186
  1815  5.2592e-06  5.1661e-06  2.2184e-06  6.4050e-01  5.2582e-06  0:00:37  185

  iter  continuity  x-velocity  y-velocity  z-velocity      energy     time/iter
  1816  5.2398e-06  5.1469e-06  2.2099e-06  6.3810e-01  5.2388e-06  0:00:30  184
  1817  5.2205e-06  5.1277e-06  2.2014e-06  6.3571e-01  5.2195e-06  0:00:24  183
  1818  5.2011e-06  5.1086e-06  2.1929e-06  6.3332e-01  5.2001e-06  0:00:19  182
  1819  5.1818e-06  5.0895e-06  2.1844e-06  6.3093e-01  5.1807e-06  0:00:15  181
  1820  5.1624e-06  5.0704e-06  2.1760e-06  6.2855e-01  5.1614e-06  0:00:12  180
  1821  5.1431e-06  5.0513e-06  2.1675e-06  6.2618e-01  5.1421e-06  0:00:09  179
  1822  5.1238e-06  5.0322e-06  2.1591e-06  6.2380e-01  5.1228e-06  0:00:08  178
  1823  5.1045e-06  5.0131e-06  2.1507e-06  6.2143e-01  5.1035e-06  0:00:06  177
  1824  5.0852e-06  4.9941e-06  2.1422e-06  6.1907e-01  5.0842e-06  0:00:05  176
  1825  5.0660e-06  4.9750e-06  2.1338e-06  6.1675e-01  5.0650e-06  0:00:04  175
  1826  5.0469e-06  4.9560e-06  2.1255e-06  6.1450e-01  5.0459e-06  0:00:03  174

  iter  continuity  x-velocity  y-velocity  z-velocity      energy     time/iter
  1827  5.0277e-06  4.9370e-06  2.1172e-06  6.1222e-01  5.0268e-06  0:00:02  173
  1828  5.0087e-06  4.9181e-06  2.1088e-06  6.0991e-01  5.0077e-06  0:00:02  172
  1829  4.9897e-06  4.8992e-06  2.1005e-06  6.0758e-01  4.9887e-06  0:00:02  171
  1830  4.9707e-06  4.8804e-06  2.0922e-06  6.0525e-01  4.9697e-06  0:00:01  170
  1831  4.9517e-06  4.8615e-06  2.0839e-06  6.0292e-01  4.9508e-06  0:00:01  169
  1832  4.9329e-06  4.8427e-06  2.0756e-06  6.0058e-01  4.9319e-06  0:00:01  168
  1833  4.9141e-06  4.8241e-06  2.0674e-06  5.9824e-01  4.9132e-06  0:00:01  167
  1834  4.8956e-06  4.8057e-06  2.0593e-06  5.9591e-01  4.8946e-06  0:00:00  166
  1835  4.8770e-06  4.7872e-06  2.0510e-06  5.9358e-01  4.8761e-06  0:00:00  165
  1836  4.8585e-06  4.7686e-06  2.0427e-06  5.9125e-01  4.8575e-06  0:00:33  164
  1837  4.8399e-06  4.7499e-06  2.0345e-06  5.8893e-01  4.8389e-06  0:00:26  163

  iter  continuity  x-velocity  y-velocity  z-velocity      energy     time/iter
  1838  4.8213e-06  4.7312e-06  2.0263e-06  5.8661e-01  4.8204e-06  0:00:21  162
  1839  4.8028e-06  4.7125e-06  2.0182e-06  5.8429e-01  4.8019e-06  0:00:17  161
  1840  4.7844e-06  4.6939e-06  2.0100e-06  5.8198e-01  4.7835e-06  0:00:13  160
  1841  4.7661e-06  4.6753e-06  2.0019e-06  5.7967e-01  4.7651e-06  0:00:11  159
  1842  4.7478e-06  4.6568e-06  1.9938e-06  5.7736e-01  4.7468e-06  0:00:08  158
  1843  4.7295e-06  4.6383e-06  1.9857e-06  5.7506e-01  4.7286e-06  0:00:07  157
  1844  4.7114e-06  4.6199e-06  1.9777e-06  5.7276e-01  4.7105e-06  0:00:05  156
  1845  4.6933e-06  4.6015e-06  1.9696e-06  5.7047e-01  4.6924e-06  0:00:04  155
  1846  4.6752e-06  4.5831e-06  1.9616e-06  5.6818e-01  4.6743e-06  0:00:03  154
  1847  4.6572e-06  4.5648e-06  1.9536e-06  5.6590e-01  4.6563e-06  0:00:03  153
  1848  4.6393e-06  4.5465e-06  1.9456e-06  5.6362e-01  4.6384e-06  0:00:02  152

  iter  continuity  x-velocity  y-velocity  z-velocity      energy     time/iter
  1849  4.6215e-06  4.5283e-06  1.9376e-06  5.6135e-01  4.6206e-06  0:00:02  151
  1850  4.6037e-06  4.5101e-06  1.9297e-06  5.5907e-01  4.6028e-06  0:00:01  150
  1851  4.5859e-06  4.4920e-06  1.9217e-06  5.5681e-01  4.5851e-06  0:00:01  149
  1852  4.5685e-06  4.4744e-06  1.9143e-06  5.5455e-01  4.5676e-06  0:00:01  148
  1853  4.5512e-06  4.4569e-06  1.9069e-06  5.5229e-01  4.5504e-06  0:00:01  147
  1854  4.5339e-06  4.4393e-06  1.8992e-06  5.5003e-01  4.5330e-06  0:00:01  146
  1855  4.5165e-06  4.4216e-06  1.8915e-06  5.4777e-01  4.5156e-06  0:00:00  145
  1856  4.4990e-06  4.4038e-06  1.8837e-06  5.4553e-01  4.4982e-06  0:00:00  144
  1857  4.4815e-06  4.3857e-06  1.8757e-06  5.4328e-01  4.4806e-06  0:00:29  143
  1858  4.4638e-06  4.3675e-06  1.8678e-06  5.4105e-01  4.4629e-06  0:00:23  142
  1859  4.4465e-06  4.3499e-06  1.8605e-06  5.3881e-01  4.4457e-06  0:00:18  141

  iter  continuity  x-velocity  y-velocity  z-velocity      energy     time/iter
  1860  4.4294e-06  4.3325e-06  1.8532e-06  5.3658e-01  4.4285e-06  0:00:14  140
  1861  4.4122e-06  4.3150e-06  1.8458e-06  5.3436e-01  4.4113e-06  0:00:11  139
  1862  4.3950e-06  4.2975e-06  1.8383e-06  5.3215e-01  4.3942e-06  0:00:09  138
  1863  4.3779e-06  4.2795e-06  1.8308e-06  5.2994e-01  4.3770e-06  0:00:07  137
  1864  4.3614e-06  4.2607e-06  1.8237e-06  5.2774e-01  4.3606e-06  0:00:06  136
  1865  4.3452e-06  4.2429e-06  1.8164e-06  5.2558e-01  4.3444e-06  0:00:05  135
  1866  4.4887e-06  4.2360e-06  1.8033e-06  5.2346e-01  4.4879e-06  0:00:04  134
  1867  4.6621e-06  4.2265e-06  1.7912e-06  5.2160e-01  4.6613e-06  0:00:03  133
  1868  4.6998e-06  4.2068e-06  1.7817e-06  5.1993e-01  4.6990e-06  0:00:02  132
  1869  4.7044e-06  4.1909e-06  1.7746e-06  5.1821e-01  4.7036e-06  0:00:02  131
  1870  4.7036e-06  4.1763e-06  1.7706e-06  5.1636e-01  4.7029e-06  0:00:01  130

  iter  continuity  x-velocity  y-velocity  z-velocity      energy     time/iter
  1871  4.6998e-06  4.1609e-06  1.7684e-06  5.1439e-01  4.6990e-06  0:00:01  129
  1872  4.6917e-06  4.1445e-06  1.7663e-06  5.1234e-01  4.6909e-06  0:00:01  128
  1873  4.6791e-06  4.1275e-06  1.7632e-06  5.1025e-01  4.6783e-06  0:00:01  127
  1874  4.6629e-06  4.1100e-06  1.7586e-06  5.0813e-01  4.6622e-06  0:00:26  126
  1875  4.6443e-06  4.0923e-06  1.7525e-06  5.0601e-01  4.6436e-06  0:00:20  125
  1876  4.6243e-06  4.0746e-06  1.7450e-06  5.0389e-01  4.6235e-06  0:00:16  124
  1877  4.6036e-06  4.0572e-06  1.7364e-06  5.0177e-01  4.6028e-06  0:00:13  123
  1878  4.5828e-06  4.0400e-06  1.7273e-06  4.9964e-01  4.5821e-06  0:00:10  122
  1879  4.5624e-06  4.0232e-06  1.7179e-06  4.9749e-01  4.5617e-06  0:00:08  121
  1880  4.5424e-06  4.0067e-06  1.7085e-06  4.9534e-01  4.5417e-06  0:00:06  120
  1881  4.5228e-06  3.9905e-06  1.6993e-06  4.9317e-01  4.5221e-06  0:00:05  119

  iter  continuity  x-velocity  y-velocity  z-velocity      energy     time/iter
  1882  4.5034e-06  3.9742e-06  1.6906e-06  4.9099e-01  4.5027e-06  0:00:04  118
  1883  4.4840e-06  3.9579e-06  1.6823e-06  4.8879e-01  4.4833e-06  0:00:03  117
  1884  4.4646e-06  3.9415e-06  1.6745e-06  4.8659e-01  4.4639e-06  0:00:03  116
  1885  4.4450e-06  3.9247e-06  1.6670e-06  4.8439e-01  4.4443e-06  0:00:02  115
  1886  4.4252e-06  3.9076e-06  1.6599e-06  4.8218e-01  4.4245e-06  0:00:02  114
  1887  4.4055e-06  3.8903e-06  1.6531e-06  4.7997e-01  4.4048e-06  0:00:01  113
  1888  4.4669e-06  3.8767e-06  1.6477e-06  4.7777e-01  4.4662e-06  0:00:01  112
  1889  4.8209e-06  3.8716e-06  1.6497e-06  4.7570e-01  4.8203e-06  0:00:01  111
  1890  4.9670e-06  3.8438e-06  1.6571e-06  4.7386e-01  4.9664e-06  0:00:01  110
  1891  5.0016e-06  3.8274e-06  1.6585e-06  4.7166e-01  5.0010e-06  0:00:01  109
  1892  5.0015e-06  3.8126e-06  1.6508e-06  4.6896e-01  5.0008e-06  0:00:00  108

  iter  continuity  x-velocity  y-velocity  z-velocity      energy     time/iter
  1893  5.0013e-06  3.7944e-06  1.6360e-06  4.6582e-01  5.0007e-06  0:00:00  107
  1894  5.0007e-06  3.7722e-06  1.6166e-06  4.6230e-01  5.0001e-06  0:00:00  106
  1895  4.9873e-06  3.7464e-06  1.5943e-06  4.5844e-01  4.9867e-06  0:00:21  105
  1896  4.9512e-06  3.7176e-06  1.5696e-06  4.5425e-01  4.9506e-06  0:00:17  104
  1897  4.8929e-06  3.6864e-06  1.5428e-06  4.4972e-01  4.8923e-06  0:00:13  103
  1898  4.8200e-06  3.6535e-06  1.5147e-06  4.4484e-01  4.8194e-06  0:00:11  102
  1899  4.7419e-06  3.6195e-06  1.4866e-06  4.3965e-01  4.7413e-06  0:00:08  101
  1900  4.6660e-06  3.5848e-06  1.4598e-06  4.3420e-01  4.6654e-06  0:00:07  100
  1901  4.5966e-06  3.5495e-06  1.4354e-06  4.2855e-01  4.5960e-06  0:00:05   99
  1902  4.5347e-06  3.5137e-06  1.4141e-06  4.2280e-01  4.5342e-06  0:00:04   98
  1903  4.4792e-06  3.4772e-06  1.3960e-06  4.1701e-01  4.4787e-06  0:00:03   97

  iter  continuity  x-velocity  y-velocity  z-velocity      energy     time/iter
  1904  4.4279e-06  3.4398e-06  1.3806e-06  4.1125e-01  4.4273e-06  0:00:03   96
  1905  4.3785e-06  3.4015e-06  1.3672e-06  4.0559e-01  4.3780e-06  0:00:02   95
  1906  4.3294e-06  3.3625e-06  1.3548e-06  4.0005e-01  4.3289e-06  0:00:02   94
  1907  4.2797e-06  3.3230e-06  1.3426e-06  3.9467e-01  4.2791e-06  0:00:01   93
  1908  4.2291e-06  3.2840e-06  1.3299e-06  3.8945e-01  4.2286e-06  0:00:01   92
  1909  4.1780e-06  3.2456e-06  1.3162e-06  3.8441e-01  4.1775e-06  0:00:01   91
  1910  4.1261e-06  3.2079e-06  1.3015e-06  3.7953e-01  4.1256e-06  0:00:01   90
  1911  4.0762e-06  3.1712e-06  1.2859e-06  3.7482e-01  4.0757e-06  0:00:01   89
  1912  4.0281e-06  3.1356e-06  1.2698e-06  3.7026e-01  4.0276e-06  0:00:00   88
  1913  3.9819e-06  3.1010e-06  1.2534e-06  3.6584e-01  3.9814e-06  0:00:00   87
  1914  3.9372e-06  3.0673e-06  1.2371e-06  3.6154e-01  3.9367e-06  0:00:00   86

  iter  continuity  x-velocity  y-velocity  z-velocity      energy     time/iter
  1915  3.8938e-06  3.0344e-06  1.2214e-06  3.5735e-01  3.8933e-06  0:00:00   85
  1916  3.8513e-06  3.0019e-06  1.2063e-06  3.5324e-01  3.8508e-06  0:00:17   84
  1917  3.8093e-06  2.9697e-06  1.1919e-06  3.4921e-01  3.8088e-06  0:00:13   83
  1918  3.7677e-06  2.9376e-06  1.1783e-06  3.4524e-01  3.7673e-06  0:00:11   82
  1919  3.7264e-06  2.9054e-06  1.1653e-06  3.4132e-01  3.7260e-06  0:00:08   81
  1920  3.6855e-06  2.8733e-06  1.1528e-06  3.3746e-01  3.6851e-06  0:00:07   80
  1921  3.6450e-06  2.8413e-06  1.1407e-06  3.3364e-01  3.6446e-06  0:00:05   79
  1922  3.6051e-06  2.8095e-06  1.1289e-06  3.2988e-01  3.6046e-06  0:00:04   78
  1923  3.5657e-06  2.7780e-06  1.1175e-06  3.2618e-01  3.5653e-06  0:00:03   77
  1924  3.5271e-06  2.7473e-06  1.1061e-06  3.2254e-01  3.5267e-06  0:00:03   76
  1925  3.4891e-06  2.7172e-06  1.0948e-06  3.1896e-01  3.4887e-06  0:00:02   75

  iter  continuity  x-velocity  y-velocity  z-velocity      energy     time/iter
  1926  3.4516e-06  2.6877e-06  1.0835e-06  3.1546e-01  3.4512e-06  0:00:02   74
  1927  3.4145e-06  2.6589e-06  1.0723e-06  3.1203e-01  3.4141e-06  0:00:01   73
  1928  3.3777e-06  2.6307e-06  1.0612e-06  3.0866e-01  3.3773e-06  0:00:01   72
  1929  3.3410e-06  2.6030e-06  1.0502e-06  3.0536e-01  3.3406e-06  0:00:01   71
  1930  3.3044e-06  2.5757e-06  1.0392e-06  3.0212e-01  3.3040e-06  0:00:01   70
  1931  3.2678e-06  2.5488e-06  1.0282e-06  2.9894e-01  3.2674e-06  0:00:00   69
  1932  3.2313e-06  2.5222e-06  1.0172e-06  2.9580e-01  3.2309e-06  0:00:00   68
  1933  3.1950e-06  2.4958e-06  1.0064e-06  2.9271e-01  3.1946e-06  0:00:00   67
  1934  3.1590e-06  2.4697e-06  9.9563e-07  2.8966e-01  3.1586e-06  0:00:00   66
  1935  3.1236e-06  2.4439e-06  9.8500e-07  2.8665e-01  3.1232e-06  0:00:00   65
  1936  3.0887e-06  2.4184e-06  9.7453e-07  2.8367e-01  3.0883e-06  0:00:00   64

  iter  continuity  x-velocity  y-velocity  z-velocity      energy     time/iter
  1937  3.0545e-06  2.3933e-06  9.6425e-07  2.8072e-01  3.0541e-06  0:00:00   63
  1938  3.0210e-06  2.3684e-06  9.5418e-07  2.7781e-01  3.0207e-06  0:00:12   62
  1939  2.9882e-06  2.3440e-06  9.4443e-07  2.7493e-01  2.9878e-06  0:00:10   61
  1940  2.9558e-06  2.3200e-06  9.3514e-07  2.7210e-01  2.9554e-06  0:00:08   60
  1941  2.9240e-06  2.2960e-06  9.2595e-07  2.6930e-01  2.9237e-06  0:00:06   59
  1942  2.8926e-06  2.2724e-06  9.1683e-07  2.6656e-01  2.8922e-06  0:00:05   58
  1943  2.8607e-06  2.2492e-06  9.0774e-07  2.6429e-01  2.8604e-06  0:00:04   57
  1944  2.8297e-06  2.2263e-06  8.9876e-07  2.6194e-01  2.8293e-06  0:00:03   56
  1945  2.7998e-06  2.2038e-06  8.8996e-07  2.5950e-01  2.7994e-06  0:00:02   55
  1946  2.7709e-06  2.1815e-06  8.8135e-07  2.5703e-01  2.7706e-06  0:00:02   54
  1947  2.7430e-06  2.1595e-06  8.7293e-07  2.5457e-01  2.7426e-06  0:00:01   53

  iter  continuity  x-velocity  y-velocity  z-velocity      energy     time/iter
  1948  2.7156e-06  2.1377e-06  8.6466e-07  2.5212e-01  2.7152e-06  0:00:01   52
  1949  2.6884e-06  2.1162e-06  8.5649e-07  2.4967e-01  2.6881e-06  0:00:01   51
  1950  2.6614e-06  2.0950e-06  8.4838e-07  2.4724e-01  2.6611e-06  0:00:01   50
  1951  2.6345e-06  2.0740e-06  8.4032e-07  2.4482e-01  2.6341e-06  0:00:01   49
  1952  2.6076e-06  2.0533e-06  8.3229e-07  2.4242e-01  2.6073e-06  0:00:00   48
  1953  2.5809e-06  2.0327e-06  8.2427e-07  2.4003e-01  2.5805e-06  0:00:00   47
  1954  2.5543e-06  2.0125e-06  8.1628e-07  2.3766e-01  2.5540e-06  0:00:00   46
  1955  2.5281e-06  1.9925e-06  8.0832e-07  2.3532e-01  2.5278e-06  0:00:00   45
  1956  2.5021e-06  1.9727e-06  8.0040e-07  2.3299e-01  2.5018e-06  0:00:00   44
  1957  2.4765e-06  1.9532e-06  7.9254e-07  2.3068e-01  2.4762e-06  0:00:00   43
  1958  2.4513e-06  1.9339e-06  7.8473e-07  2.2840e-01  2.4510e-06  0:00:00   42

  iter  continuity  x-velocity  y-velocity  z-velocity      energy     time/iter
  1959  2.4264e-06  1.9149e-06  7.7701e-07  2.2613e-01  2.4261e-06  0:00:08   41
  1960  2.4018e-06  1.8961e-06  7.6937e-07  2.2389e-01  2.4015e-06  0:00:06   40
  1961  2.3775e-06  1.8775e-06  7.6182e-07  2.2167e-01  2.3772e-06  0:00:05   39
  1962  2.3535e-06  1.8591e-06  7.5436e-07  2.1946e-01  2.3532e-06  0:00:04   38
  1963  2.3297e-06  1.8409e-06  7.4699e-07  2.1728e-01  2.3294e-06  0:00:03   37
  1964  2.3061e-06  1.8228e-06  7.3970e-07  2.1512e-01  2.3058e-06  0:00:02   36
  1965  2.2827e-06  1.8050e-06  7.3247e-07  2.1298e-01  2.2824e-06  0:00:02   35
  1966  2.2594e-06  1.7873e-06  7.2529e-07  2.1085e-01  2.2591e-06  0:00:01   34
  1967  2.2364e-06  1.7698e-06  7.1815e-07  2.0875e-01  2.2361e-06  0:00:01   33
  1968  2.2135e-06  1.7524e-06  7.1105e-07  2.0667e-01  2.2132e-06  0:00:01   32
  1969  2.1908e-06  1.7352e-06  7.0398e-07  2.0460e-01  2.1905e-06  0:00:01   31

  iter  continuity  x-velocity  y-velocity  z-velocity      energy     time/iter
  1970  2.1683e-06  1.7181e-06  6.9694e-07  2.0255e-01  2.1681e-06  0:00:01   30
  1971  2.1461e-06  1.7011e-06  6.8993e-07  2.0052e-01  2.1458e-06  0:00:00   29
  1972  2.1240e-06  1.6843e-06  6.8295e-07  1.9851e-01  2.1237e-06  0:00:00   28
  1973  2.1021e-06  1.6676e-06  6.7602e-07  1.9651e-01  2.1019e-06  0:00:00   27
  1974  2.0804e-06  1.6510e-06  6.6913e-07  1.9454e-01  2.0802e-06  0:00:00   26
  1975  2.0590e-06  1.6346e-06  6.6229e-07  1.9257e-01  2.0587e-06  0:00:00   25
  1976  2.0377e-06  1.6182e-06  6.5551e-07  1.9063e-01  2.0374e-06  0:00:05   24
  1977  2.0166e-06  1.6020e-06  6.4878e-07  1.8870e-01  2.0163e-06  0:00:04   23
  1978  1.9956e-06  1.5858e-06  6.4211e-07  1.8679e-01  1.9954e-06  0:00:03   22
  1979  1.9749e-06  1.5698e-06  6.3550e-07  1.8489e-01  1.9747e-06  0:00:02   21
  1980  1.9544e-06  1.5539e-06  6.2894e-07  1.8301e-01  1.9542e-06  0:00:02   20

  iter  continuity  x-velocity  y-velocity  z-velocity      energy     time/iter
  1981  1.9342e-06  1.5381e-06  6.2243e-07  1.8115e-01  1.9339e-06  0:00:01   19
  1982  1.9141e-06  1.5224e-06  6.1599e-07  1.7930e-01  1.9139e-06  0:00:01   18
  1983  1.8943e-06  1.5068e-06  6.0959e-07  1.7747e-01  1.8940e-06  0:00:01   17
  1984  1.8747e-06  1.4913e-06  6.0326e-07  1.7565e-01  1.8745e-06  0:00:01   16
  1985  1.8554e-06  1.4760e-06  5.9698e-07  1.7386e-01  1.8551e-06  0:00:00   15
  1986  1.8363e-06  1.4608e-06  5.9076e-07  1.7208e-01  1.8360e-06  0:00:00   14
  1987  1.8174e-06  1.4457e-06  5.8461e-07  1.7031e-01  1.8172e-06  0:00:00   13
  1988  1.7989e-06  1.4307e-06  5.7853e-07  1.6857e-01  1.7986e-06  0:00:00   12
  1989  1.7805e-06  1.4159e-06  5.7251e-07  1.6684e-01  1.7803e-06  0:00:00   11
  1990  1.7624e-06  1.4012e-06  5.6657e-07  1.6513e-01  1.7622e-06  0:00:00   10
  1991  1.7446e-06  1.3866e-06  5.6069e-07  1.6343e-01  1.7444e-06  0:00:00    9

  iter  continuity  x-velocity  y-velocity  z-velocity      energy     time/iter
  1992  1.7270e-06  1.3722e-06  5.5489e-07  1.6176e-01  1.7268e-06  0:00:00    8
  1993  1.7096e-06  1.3580e-06  5.4916e-07  1.6010e-01  1.7094e-06  0:00:00    7
  1994  1.6925e-06  1.3438e-06  5.4350e-07  1.5846e-01  1.6922e-06  0:00:00    6
  1995  1.6755e-06  1.3298e-06  5.3791e-07  1.5683e-01  1.6753e-06  0:00:00    5
  1996  1.6588e-06  1.3160e-06  5.3239e-07  1.5522e-01  1.6586e-06  0:00:00    4
  1997  1.6423e-06  1.3023e-06  5.2693e-07  1.5364e-01  1.6421e-06  0:00:00    3
  1998  1.6259e-06  1.2887e-06  5.2153e-07  1.5206e-01  1.6257e-06  0:00:00    2
  1999  1.6098e-06  1.2753e-06  5.1620e-07  1.5051e-01  1.6096e-06  0:00:00    1
  2000  1.5938e-06  1.2620e-06  5.1091e-07  1.4897e-01  1.5936e-06  0:00:00    0

> 
adjoint/                parallel/               server/
define/                 parametric-study/       solve/
display/                plot/                   surface/
exit                    preferences/            turbo-workflow/
file/                   print-license-usage     views/
mesh/                   report/

> /file/write-case-data project1
Fast-loading "C:\PROGRA~1\ANSYSI~1\v231\fluent\fluent23.1.0\\addons\afd\lib\hdfio.bin"
Done.

Writing to Engs-30669:"C:\Users\kebl7595\Desktop\CFD\Runs\Actual Data\0 degree coarse mesh\project1.cas.h5" in NODE0 mode and compression level 1 ...
        7050 cells,     1 zone  ...
       23803 faces,     8 zones ...
        9804 nodes,     1 zone  ...
  Done.
Done.

Writing to Engs-30669:"C:\Users\kebl7595\Desktop\CFD\Runs\Actual Data\0 degree coarse mesh\project1.dat.h5" in NODE0 mode and compression level 1 ...
  Writing results.
Done.

> /file/export/ascii "./surface.dat" wing te () no pressure mach-number quit no

Writing "./surface.dat"...

Writing information to ascii file ...
Done.


> /plot/plot y "data.dat" no n n pressure-coefficient no n x-coordinate wing ()

> 
adjoint/                parallel/               server/
define/                 parametric-study/       solve/
display/                plot/                   surface/
exit                    preferences/            turbo-workflow/
file/                   print-license-usage     views/
mesh/                   report/

> /exit

Posting ANSYS Product Improvement Program performance data 
Done.
Auto-Transcript Stop Time:  14:25:12, 20 May 2024 GMT Daylight Time 
Total Transcript Time: 1 Minute 44 Second.
