Auto-Transcript Start Time:  09:20:22, 22 May 2024 GMT Daylight Time 
Current Directory: "C:\Users\kebl7595\Desktop\CFD\Runs\Flap\test"

              Welcome to ANSYS Fluent 2023 R1

              Copyright 1987-2023 ANSYS, Inc. All Rights Reserved.
              Unauthorized use, distribution or duplication is prohibited.
              This product is subject to U.S. laws governing export and re-export.
              For full Legal Notice, see documentation.

Build Time: Nov 28 2022 09:52:02 EST  Build Id: 10208  
 
Connected License Server List:	1055@ansyslic.eng.ox.ac.uk

*********************************************
Info: Your license enables 4-way parallel execution.
For faster simulations, please start the application with the appropriate parallel options.
*********************************************


     --------------------------------------------------------------
     This is an academic version of ANSYS FLUENT. Usage of this product
     license is limited to the terms and conditions specified in your ANSYS
     license form, additional terms section.
     --------------------------------------------------------------
Host spawning Node 0 on machine "Engs-30669" (win64).

------------------------------------------------------------------------------------
ID    Hostname    Core  O.S.         PID    Vendor                                 
------------------------------------------------------------------------------------
n0    Engs-30669  1/32  Windows-x64  11356  13th Gen Intel(R) Core(TM) i9-13900    
host  Engs-30669        Windows-x64  37404  13th Gen Intel(R) Core(TM) i9-13900    

MPI Option Selected: intel
------------------------------------------------------------------------------------

Cleanup script file is C:\\Users\\kebl7595\\Desktop\\CFD\\Runs\\Flap\\test\\cleanup-fluent-Engs-30669-37404.bat
QA Service Message :
QA Services Agreement Enabled. This application is included in the scope of an ANSYS QA Services Agreement.
Posting ANSYS Product Improvement Program startup data
Done.

Reading journal file C:/Users/kebl7595/Desktop/CFD/Runs/Flap/test/project1.jou...

> /file/set-batch-options no no no 

> 
define/                 parametric-study/       solve/
display/                plot/                   surface/
exit                    preferences/            switch-to-meshing-mode
file/                   print-license-usage     turbo-workflow/
mesh/                   report/                 views/
parallel/               server/

> /file/import/cgns/mesh  "./project1.cgns"Note: Rank = 0: Process affinity not being set (6).

Importing "./project1.cgns"

Opening library "C:\\PROGRA~1\\ANSYSI~1\\v231\\fluent\\fluent23.1.0\\vki\\win64\\devtools4.4.6.dll"... done.

Read    33000 nodes
   24072 hexahedral cells, zone  1
   17404 quadrilateral wall faces, zone  2.
   63040 quadrilateral interior faces, zone  3.
     474 quadrilateral interface faces, zone  4.

Building...
     mesh
     materials,
     interface,
     domains,
     zones,
	interface-default_subface
	default_interior-1
	default_subface
	default
     parallel,
The automatic selection for flux type has changed to Rhie-Chow: momentum based.

Done.


> 
adjoint/                parallel/               server/
define/                 parametric-study/       solve/
display/                plot/                   surface/
exit                    preferences/            turbo-workflow/
file/                   print-license-usage     views/
mesh/                   report/

> /define/models/solver/density-based-implicit yes

> 
adjoint/                parallel/               server/
define/                 parametric-study/       solve/
display/                plot/                   surface/
exit                    preferences/            turbo-workflow/
file/                   print-license-usage     views/
mesh/                   report/

> /define/models/energy? yes yes invalid command [yes]
yes

> /define/models/viscous/kw-standard? yes

> 
adjoint/                parallel/               server/
define/                 parametric-study/       solve/
display/                plot/                   surface/
exit                    preferences/            turbo-workflow/
file/                   print-license-usage     views/
mesh/                   report/

> /define/materials/change-create air air air is a fluid
yes 
Density
ideal-gas no data required.

no no no no no no

> 
adjoint/                parallel/               server/
define/                 parametric-study/       solve/
display/                plot/                   surface/
exit                    preferences/            turbo-workflow/
file/                   print-license-usage     views/
mesh/                   report/

> /mesh/modify-zones/sep-face-zone-angle 2 90 yes

 8024 faces in contiguous region 0
 441 faces in contiguous region 1
 618 faces in contiguous region 2
 8024 faces in contiguous region 3
 297 faces in contiguous region 4
 Separates zone 2 into 5 zone(s).
Updating new zone information...
   created new zone default_subface:009 from default_subface
   created new zone default_subface:008 from default_subface
   created new zone default_subface:007 from default_subface
   created new zone default_subface:006 from default_subface
done.

> 
adjoint/                parallel/               server/
define/                 parametric-study/       solve/
display/                plot/                   surface/
exit                    preferences/            turbo-workflow/
file/                   print-license-usage     views/
mesh/                   report/

> /define/boundary-conditions/zone-name  5 Invalid zone.
  te
Invalid zone.
zone id/name [] /define/boundary-conditions/zone-name Invalid zone.
 7 wing

> /define/boundary-conditions/zone-name  2 sym1

> /define/boundary-conditions/zone-name  9 sym2

> 
adjoint/                parallel/               server/
define/                 parametric-study/       solve/
display/                plot/                   surface/
exit                    preferences/            turbo-workflow/
file/                   print-license-usage     views/
mesh/                   report/

> /define/boundary-conditions/zone-name  8 far1

> /define/boundary-conditions/zone-name 10 Invalid zone.
far2
Invalid zone.
zone id/name [] 

> /define/boundary-conditions/zone-type  8 pressure-far-field

> /define/boundary-conditions/zone-type 10 Invalid zone.
pressure-far-field
Invalid zone.
zone id/name [] /define/boundary-conditions/zone-type Invalid zone.
 2 symmetry

> /define/boundary-conditions/zone-type  9 symmetry

> 
adjoint/                parallel/               server/
define/                 parametric-study/       solve/
display/                plot/                   surface/
exit                    preferences/            turbo-workflow/
file/                   print-license-usage     views/
mesh/                   report/

> /define/boundary-conditions/pressure-far-field (far1)
far1 no 0 no 0.1 no 300 yes no 0.984808 no 0.173648 no 0. no yes 5 0.02

> /define/boundary-conditions/pressure-far-field (far1)
far2 Invalid zone.
no Invalid zone.
0 Invalid zone.
no Invalid zone.
0.1 Invalid zone.
no Invalid zone.
300 Invalid zone.
yes Invalid zone.
no Invalid zone.
0.984808 Invalid zone.
no Invalid zone.
0.173648 Invalid zone.
no Invalid zone.
0. Invalid zone.
no Invalid zone.
yes Invalid zone.
5 Invalid zone.
0.02
Invalid zone.
zone id/name [far1] 
Use Profile for Gauge Pressure? [no] /solve/initialize/compute-defaults/pressure-far-field Please answer y[es] or n[o].
far1
Please answer y[es] or n[o].
Use Profile for Gauge Pressure? [no] /solve/initialize/initialize-flow
Please answer y[es] or n[o].
Use Profile for Gauge Pressure? [no] 
Gauge Pressure (constant or expresssion) (in [Pa]) [0] /solve/monitors/residual/convergence-criteria 
Error: eval: unbound variable
Error Object: /solve/monitors/residual/convergence-criteria
Invalid pressure
1.e-9 1.e-9 Please answer y[es] or n[o].
1.e-9 Please answer y[es] or n[o].
1.e-9 Please answer y[es] or n[o].
1.e-9 Please answer y[es] or n[o].
1.e-9 Please answer y[es] or n[o].
1.e-9
Please answer y[es] or n[o].
Use Profile for Mach Number? [no] /solve/iterate Please answer y[es] or n[o].
2000
Please answer y[es] or n[o].
Use Profile for Mach Number? [no] 
Mach Number (constant or expresssion) [0.1] /file/write-case-data 
Error: eval: unbound variable
Error Object: /file/write-case-data
Invalid 
project1

Error: eval: unbound variable
Error Object: project1
Invalid 
Mach Number (constant or expresssion) [0.1] /file/export/ascii 
Error: eval: unbound variable
Error Object: /file/export/ascii
Invalid 
"./surface.dat""Error": invalid syntax
 
Invalid 
 wing 
Error: eval: unbound variable
Error Object: wing
Invalid 
te 
Error: eval: unbound variable
Error Object: te
Invalid 
()Invalid 
 no 
Error: eval: unbound variable
Error Object: no
Invalid 
pressure 
Error: eval: unbound variable
Error Object: pressure
Invalid 
mach-number 
Error: eval: unbound variable
Error Object: mach-number
Invalid 
quit 
Error: eval: unbound variable
Error Object: quit
Invalid 
no

Error: eval: unbound variable
Error Object: no
Invalid 
Mach Number (constant or expresssion) [0.1] /plot/plot 
Error: eval: unbound variable
Error Object: /plot/plot
Invalid 
y 
Error: eval: unbound variable
Error Object: y
Invalid 
"pressuredata.dat""Error": name 'pressuredata' is not defined
 
Invalid 
 no 
Error: eval: unbound variable
Error Object: no
Invalid 
n Invalid 
n Invalid 
pressure-coefficient 
Error: eval: unbound variable
Error Object: pressure-coefficient
Invalid 
no 
Error: eval: unbound variable
Error Object: no
Invalid 
n Invalid 
x-coordinate 
Error: eval: unbound variable
Error Object: x-coordinate
Invalid 
wing 
Error: eval: unbound variable
Error Object: wing
Invalid 
()Invalid 

Mach Number (constant or expresssion) [0.1] /plot/plot 
Error: eval: unbound variable
Error Object: /plot/plot
Invalid 
y 
Error: eval: unbound variable
Error Object: y
Invalid 
"frictiondata.dat""Error": name 'frictiondata' is not defined
 
Invalid 
 no 
Error: eval: unbound variable
Error Object: no
Invalid 
n Invalid 
n Invalid 
skin-friction-coef 
Error: eval: unbound variable
Error Object: skin-friction-coef
Invalid 
no 
Error: eval: unbound variable
Error Object: no
Invalid 
n Invalid 
x-coordinate 
Error: eval: unbound variable
Error Object: x-coordinate
Invalid 
wing 
Error: eval: unbound variable
Error Object: wing
Invalid 
()Invalid 

Mach Number (constant or expresssion) [0.1] /exit

Error: eval: unbound variable
Error Object: /exit
Invalid 
Mach Number (constant or expresssion) [0.1] Use Profile for Temperature? [no] Temperature (constant or expresssion) (in [K]) [300] Coordinate System: Cartesian (X, Y, Z) [yes] Use Profile for X-Component of Flow Direction? [no] X-Component of Flow Direction (constant or expresssion) [0.984808] Use Profile for Y-Component of Flow Direction? [no] Y-Component of Flow Direction (constant or expresssion) [0.173648] Use Profile for Z-Component of Flow Direction? [no] Z-Component of Flow Direction (constant or expresssion) [0] Turbulent Specification Method: K and Omega [no] Turbulent Specification Method: Intensity and Length Scale [yes] Turbulent Intensity (constant or expresssion) (in [%]) [5] Turbulent Length Scale (constant or expresssion) (in [m]) [0.02] 
> (cx-gui-do cx-set-toggle-button2 "QA Service Message*Table1*CheckButton2(Don't show this message again)" #t)
(cx-gui-do cx-activate-item "QA Service Message*Table1*CheckButton2(Don't show this message again)")
(cx-gui-do cx-activate-item "QA Service Message*PanelButtons*PushButton1(OK)")
(cx-gui-do cx-activate-item "Ribbon*Frame1*Frame2(Domain)*Table1*Table3(Mesh)*PushButton1(Display)")
(cx-gui-do cx-activate-item "Mesh Display*PanelButtons*PushButton1(OK)")
/exit y

Posting ANSYS Product Improvement Program performance data 
Done.
Auto-Transcript Stop Time:  09:25:45, 22 May 2024 GMT Daylight Time 
Total Transcript Time: 5 Minute 23 Second.
