Auto-Transcript Start Time:  09:28:01, 22 May 2024 GMT Daylight Time 
Current Directory: "C:\Users\kebl7595\Desktop\CFD\Runs\Flap\test"

              Welcome to ANSYS Fluent 2023 R1

              Copyright 1987-2023 ANSYS, Inc. All Rights Reserved.
              Unauthorized use, distribution or duplication is prohibited.
              This product is subject to U.S. laws governing export and re-export.
              For full Legal Notice, see documentation.

Build Time: Nov 28 2022 09:52:02 EST  Build Id: 10208  
 
Connected License Server List:	1055@ansyslic.eng.ox.ac.uk

*********************************************
Info: Your license enables 4-way parallel execution.
For faster simulations, please start the application with the appropriate parallel options.
*********************************************


     --------------------------------------------------------------
     This is an academic version of ANSYS FLUENT. Usage of this product
     license is limited to the terms and conditions specified in your ANSYS
     license form, additional terms section.
     --------------------------------------------------------------
Host spawning Node 0 on machine "Engs-30669" (win64).

------------------------------------------------------------------------------------
ID    Hostname    Core  O.S.         PID    Vendor                                 
------------------------------------------------------------------------------------
n0    Engs-30669  1/32  Windows-x64  27152  13th Gen Intel(R) Core(TM) i9-13900    
host  Engs-30669        Windows-x64  39024  13th Gen Intel(R) Core(TM) i9-13900    

MPI Option Selected: intel
------------------------------------------------------------------------------------

Cleanup script file is C:\\Users\\kebl7595\\Desktop\\CFD\\Runs\\Flap\\test\\cleanup-fluent-Engs-30669-39024.bat

Posting ANSYS Product Improvement Program startup data
Done.

Reading journal file C:/Users/kebl7595/Desktop/CFD/Runs/Flap/test/project1.jou...

> /file/set-batch-options no no no 

> 
define/                 parametric-study/       solve/
display/                plot/                   surface/
exit                    preferences/            switch-to-meshing-mode
file/                   print-license-usage     turbo-workflow/
mesh/                   report/                 views/
parallel/               server/

> /file/import/cgns/mesh  "./project1.cgns"Note: Rank = 0: Process affinity not being set (6).

Importing "./project1.cgns"

Opening library "C:\\PROGRA~1\\ANSYSI~1\\v231\\fluent\\fluent23.1.0\\vki\\win64\\devtools4.4.6.dll"... done.

Read    33000 nodes
   24072 hexahedral cells, zone  1
   17404 quadrilateral wall faces, zone  2.
   63040 quadrilateral interior faces, zone  3.
     474 quadrilateral interface faces, zone  4.

Building...
     mesh
     materials,
     interface,
     domains,
     zones,
	interface-default_subface
	default_interior-1
	default_subface
	default
     parallel,
The automatic selection for flux type has changed to Rhie-Chow: momentum based.

Done.


> 
adjoint/                parallel/               server/
define/                 parametric-study/       solve/
display/                plot/                   surface/
exit                    preferences/            turbo-workflow/
file/                   print-license-usage     views/
mesh/                   report/

> /define/models/solver/density-based-implicit yes

> 
adjoint/                parallel/               server/
define/                 parametric-study/       solve/
display/                plot/                   surface/
exit                    preferences/            turbo-workflow/
file/                   print-license-usage     views/
mesh/                   report/

> /define/models/energy? yes yes invalid command [yes]
yes

> /define/models/viscous/kw-standard? yes

> 
adjoint/                parallel/               server/
define/                 parametric-study/       solve/
display/                plot/                   surface/
exit                    preferences/            turbo-workflow/
file/                   print-license-usage     views/
mesh/                   report/

> /define/materials/change-create air air air is a fluid
yes 
Density
ideal-gas no data required.

no no no no no no

> 
adjoint/                parallel/               server/
define/                 parametric-study/       solve/
display/                plot/                   surface/
exit                    preferences/            turbo-workflow/
file/                   print-license-usage     views/
mesh/                   report/

> /mesh/modify-zones/sep-face-zone-angle 2 90 yes

 8024 faces in contiguous region 0
 441 faces in contiguous region 1
 618 faces in contiguous region 2
 8024 faces in contiguous region 3
 297 faces in contiguous region 4
 Separates zone 2 into 5 zone(s).
Updating new zone information...
   created new zone default_subface:009 from default_subface
   created new zone default_subface:008 from default_subface
   created new zone default_subface:007 from default_subface
   created new zone default_subface:006 from default_subface
done.

> 
adjoint/                parallel/               server/
define/                 parametric-study/       solve/
display/                plot/                   surface/
exit                    preferences/            turbo-workflow/
file/                   print-license-usage     views/
mesh/                   report/

> /define/boundary-conditions/zone-name  6 wing

> /define/boundary-conditions/zone-name  2 sym1

> /define/boundary-conditions/zone-name  8 sym2

> 
adjoint/                parallel/               server/
define/                 parametric-study/       solve/
display/                plot/                   surface/
exit                    preferences/            turbo-workflow/
file/                   print-license-usage     views/
mesh/                   report/

> /define/boundary-conditions/zone-name  7 far1

> /define/boundary-conditions/zone-name 9 far2

> 
adjoint/                parallel/               server/
define/                 parametric-study/       solve/
display/                plot/                   surface/
exit                    preferences/            turbo-workflow/
file/                   print-license-usage     views/
mesh/                   report/

> /define/boundary-conditions/zone-type  7 pressure-far-field

> /define/boundary-conditions/zone-type 9 pressure-far-field

> /define/boundary-conditions/zone-type  2 symmetry

> /define/boundary-conditions/zone-type  8 symmetry

> 
adjoint/                parallel/               server/
define/                 parametric-study/       solve/
display/                plot/                   surface/
exit                    preferences/            turbo-workflow/
file/                   print-license-usage     views/
mesh/                   report/

> /define/boundary-conditions/pressure-far-field (far2 far1)
far1 no 0 no 0.1 no 300 yes no 0.984808 no 0.173648 no 0. no yes 5 0.02

> /define/boundary-conditions/pressure-far-field (far2 far1)
far2 no 0 no 0.1 no 300 yes no 0.984808 no 0.173648 no 0. no yes 5 0.02

> 
adjoint/                parallel/               server/
define/                 parametric-study/       solve/
display/                plot/                   surface/
exit                    preferences/            turbo-workflow/
file/                   print-license-usage     views/
mesh/                   report/

> /solve/initialize/compute-defaults/pressure-far-field (far2 far1)
far1

> /solve/initialize/initialize-flow

> 
adjoint/                parallel/               server/
define/                 parametric-study/       solve/
display/                plot/                   surface/
exit                    preferences/            turbo-workflow/
file/                   print-license-usage     views/
mesh/                   report/

> /solve/monitors/residual/convergence-criteria 1.e-9 1.e-9 1.e-9 1.e-9 1.e-9 1.e-9 1.e-9

> /solve/iterate 2000

  iter  continuity  x-velocity  y-velocity  z-velocity      energy           k       omega     time/iter
     1  1.0000e+00  1.0000e+00  1.0000e+00  1.0000e+00  1.0000e+00  4.8590e-02  5.2060e-02  0:00:00 1999
     2  4.5855e-01  2.6066e-01  2.9848e-01  1.0000e+00  4.6061e-01  4.3175e-02  3.7294e-02  0:33:18 1998
     3  2.0383e-01  1.4195e-01  1.5093e-01  9.0569e-01  2.0401e-01  3.8720e-02  3.2018e-02  0:26:38 1997
     4  1.5541e-01  8.3611e-02  1.0029e-01  8.8417e-01  1.5608e-01  3.5039e-02  2.9087e-02  0:21:17 1996
     5  1.3121e-01  5.8000e-02  7.6574e-02  9.2057e-01  1.3210e-01  3.1993e-02  2.6983e-02  0:17:01 1995
     6  1.1083e-01  4.2497e-02  6.1673e-02  9.8760e-01  1.1156e-01  2.9362e-02  2.5127e-02  0:13:37 1994
     7  9.9255e-02  3.0481e-02  5.1270e-02  1.0634e+00  9.9793e-02  2.7090e-02  2.3489e-02  0:10:53 1993
     8  9.6720e-02  2.1831e-02  4.4713e-02  1.1207e+00  9.7183e-02  2.5139e-02  2.2078e-02  0:08:42 1992
     9  9.6107e-02  1.6491e-02  4.0908e-02  1.1336e+00  9.6548e-02  2.3480e-02  2.0873e-02  0:13:36 1991
    10  9.5583e-02  1.3474e-02  3.8677e-02  1.0728e+00  9.5988e-02  2.2085e-02  1.9802e-02  0:10:52 1990
    11  9.3399e-02  1.1933e-02  3.7120e-02  9.7968e-01  9.3754e-02  2.0886e-02  1.8867e-02  0:08:42 1989

  iter  continuity  x-velocity  y-velocity  z-velocity      energy           k       omega     time/iter
    12  9.1121e-02  1.3419e-02  3.6474e-02  8.7624e-01  9.1431e-02  1.9865e-02  1.8033e-02  0:06:57 1988
    13  8.8470e-02  1.2124e-02  3.5158e-02  8.0346e-01  8.8734e-02  1.8972e-02  1.7287e-02  0:05:33 1987
    14  8.5524e-02  1.2437e-02  3.4013e-02  7.6407e-01  8.5746e-02  1.8179e-02  1.6580e-02  0:04:27 1986
    15  8.3031e-02  1.3036e-02  3.2848e-02  7.5649e-01  8.3222e-02  1.7465e-02  1.5959e-02  0:03:33 1985
    16  8.0637e-02  1.3765e-02  3.1604e-02  7.7085e-01  8.0813e-02  1.6781e-02  1.5455e-02  0:02:50 1984
    17  7.7789e-02  1.4289e-02  3.0620e-02  7.9125e-01  7.7948e-02  1.6178e-02  1.5021e-02  0:02:16 1983
    18  7.5572e-02  1.4773e-02  2.9969e-02  8.2247e-01  7.5727e-02  1.5630e-02  1.4609e-02  0:01:49 1982
    19  7.1687e-02  1.5093e-02  2.9375e-02  8.5908e-01  7.1834e-02  1.5133e-02  1.4150e-02  0:08:03 1981
    20  6.5849e-02  1.5049e-02  2.8739e-02  8.9725e-01  6.5975e-02  1.4671e-02  1.3709e-02  0:06:26 1980
    21  5.8390e-02  1.4874e-02  2.8115e-02  9.2356e-01  5.8488e-02  1.4245e-02  1.3339e-02  0:05:09 1979
    22  4.9586e-02  1.4167e-02  2.7359e-02  9.2585e-01  4.9648e-02  1.3858e-02  1.3001e-02  0:04:07 1978

  iter  continuity  x-velocity  y-velocity  z-velocity      energy           k       omega     time/iter
    23  4.0372e-02  1.3137e-02  2.6574e-02  8.9804e-01  4.0400e-02  1.3519e-02  1.2618e-02  0:03:18 1977
    24  3.2421e-02  1.1738e-02  2.5907e-02  8.4493e-01  3.2425e-02  1.3166e-02  1.2354e-02  0:02:38 1976
    25  2.7993e-02  1.0195e-02  2.5947e-02  7.8314e-01  2.7997e-02  1.2871e-02  1.2024e-02  0:02:06 1975
    26  2.7370e-02  8.9349e-03  2.6259e-02  7.3948e-01  2.7394e-02  1.2603e-02  1.1684e-02  0:01:41 1974
    27  2.9248e-02  8.1895e-03  2.6615e-02  7.1934e-01  2.9301e-02  1.2327e-02  1.1332e-02  0:07:55 1973
    28  3.2176e-02  7.7655e-03  2.7019e-02  7.1360e-01  3.2253e-02  1.2057e-02  1.1045e-02  0:06:20 1972
    29  3.5254e-02  7.5679e-03  2.7369e-02  7.1411e-01  3.5350e-02  1.1812e-02  1.0743e-02  0:05:04 1971
    30  3.7610e-02  7.4810e-03  2.7523e-02  6.9857e-01  3.7718e-02  1.1577e-02  1.0417e-02  0:04:03 1970
    31  3.8689e-02  7.3661e-03  2.7255e-02  6.7778e-01  3.8804e-02  1.1352e-02  1.0110e-02  0:03:14 1969
    32  3.8521e-02  7.1925e-03  2.6464e-02  6.6297e-01  3.8636e-02  1.1149e-02  9.8593e-03  0:02:35 1968
    33  3.7502e-02  6.9095e-03  2.5213e-02  6.3161e-01  3.7611e-02  1.0966e-02  9.6554e-03  0:02:04 1967

  iter  continuity  x-velocity  y-velocity  z-velocity      energy           k       omega     time/iter
    34  3.5741e-02  6.5261e-03  2.3627e-02  6.0185e-01  3.5840e-02  1.0772e-02  9.4713e-03  0:01:39 1966
    35  3.3269e-02  6.0705e-03  2.1863e-02  5.6838e-01  3.3353e-02  1.0573e-02  9.3092e-03  0:01:19 1965
    36  3.0450e-02  5.4658e-03  2.0114e-02  5.3397e-01  3.0518e-02  1.0410e-02  9.1749e-03  0:01:04 1964
    37  2.7133e-02  4.9051e-03  1.8397e-02  4.9915e-01  2.7181e-02  1.0245e-02  8.9728e-03  0:07:23 1963
    38  2.3903e-02  4.4471e-03  1.6791e-02  4.5275e-01  2.3929e-02  1.0140e-02  8.8388e-03  0:05:55 1962
    39  2.1151e-02  4.0935e-03  1.5409e-02  4.1920e-01  2.1158e-02  1.0028e-02  8.6667e-03  0:04:43 1961
    40  1.8901e-02  3.7820e-03  1.4259e-02  3.8817e-01  1.8890e-02  9.9871e-03  8.4971e-03  0:03:47 1960
    41  1.7576e-02  3.5352e-03  1.3425e-02  3.7113e-01  1.7557e-02  9.9337e-03  8.3329e-03  0:03:01 1959
    42  1.6998e-02  3.3952e-03  1.2953e-02  3.5931e-01  1.6978e-02  9.8314e-03  8.1189e-03  0:02:25 1958
    43  1.6566e-02  3.2297e-03  1.2932e-02  3.4603e-01  1.6547e-02  9.8104e-03  7.9175e-03  0:01:56 1957
    44  1.6273e-02  3.0802e-03  1.2852e-02  3.3756e-01  1.6258e-02  9.7282e-03  7.7405e-03  0:01:33 1956

  iter  continuity  x-velocity  y-velocity  z-velocity      energy           k       omega     time/iter
    45  1.5887e-02  3.0096e-03  1.2847e-02  3.3228e-01  1.5874e-02  9.5475e-03  7.5306e-03  0:01:14 1955
    46  1.5367e-02  2.9381e-03  1.2865e-02  3.2206e-01  1.5354e-02  9.5620e-03  7.3666e-03  0:07:30 1954
    47  1.4813e-02  2.8243e-03  1.2893e-02  3.1635e-01  1.4799e-02  9.5615e-03  7.2434e-03  0:06:00 1953
    48  1.4264e-02  2.6869e-03  1.2916e-02  3.1306e-01  1.4248e-02  9.4184e-03  7.0786e-03  0:04:48 1952
    49  1.3844e-02  2.5530e-03  1.2981e-02  3.1195e-01  1.3825e-02  9.1985e-03  6.9366e-03  0:03:50 1951
    50  1.3640e-02  2.4341e-03  1.3074e-02  3.1064e-01  1.3618e-02  9.2640e-03  6.8833e-03  0:03:04 1950
    51  1.3603e-02  2.3353e-03  1.3147e-02  3.0852e-01  1.3578e-02  9.3267e-03  6.8067e-03  0:02:27 1949
    52  1.3677e-02  2.2536e-03  1.3150e-02  3.1804e-01  1.3650e-02  9.2329e-03  6.6931e-03  0:01:58 1948
    53  1.3869e-02  2.1800e-03  1.3094e-02  3.3009e-01  1.3840e-02  8.9688e-03  6.5834e-03  0:01:34 1947
    54  1.4136e-02  2.1274e-03  1.3005e-02  3.4212e-01  1.4107e-02  8.9888e-03  6.5418e-03  0:01:15 1946
    55  1.4410e-02  2.1027e-03  1.2882e-02  3.5300e-01  1.4380e-02  9.0681e-03  6.5104e-03  0:01:00 1945

  iter  continuity  x-velocity  y-velocity  z-velocity      energy           k       omega     time/iter
    56  1.4689e-02  2.0931e-03  1.2748e-02  3.6191e-01  1.4659e-02  9.0428e-03  6.4444e-03  0:07:17 1944
    57  1.4944e-02  2.0862e-03  1.2627e-02  3.6930e-01  1.4914e-02  8.8924e-03  6.3449e-03  0:05:49 1943
    58  1.5146e-02  2.0928e-03  1.2523e-02  3.7489e-01  1.5116e-02  8.6177e-03  6.2921e-03  0:04:39 1942
    59  1.5273e-02  2.1068e-03  1.2444e-02  3.7638e-01  1.5244e-02  8.6874e-03  6.3067e-03  0:03:43 1941
    60  1.5307e-02  2.1211e-03  1.2372e-02  3.7399e-01  1.5279e-02  8.7185e-03  6.2909e-03  0:02:59 1940
    61  1.5243e-02  2.1537e-03  1.2286e-02  3.6914e-01  1.5216e-02  8.6307e-03  6.2506e-03  0:02:23 1939
    62  1.5105e-02  2.1850e-03  1.2171e-02  3.6111e-01  1.5080e-02  8.4990e-03  6.2014e-03  0:01:54 1938
    63  1.4858e-02  2.2135e-03  1.2001e-02  3.5119e-01  1.4835e-02  8.3006e-03  6.1815e-03  0:01:31 1937
    64  1.4574e-02  2.2478e-03  1.1817e-02  3.3917e-01  1.4552e-02  8.3109e-03  6.1921e-03  0:01:13 1936
    65  1.4270e-02  2.2801e-03  1.1608e-02  3.2533e-01  1.4249e-02  8.3146e-03  6.1836e-03  0:00:58 1935
    66  1.3955e-02  2.2956e-03  1.1380e-02  3.1029e-01  1.3934e-02  8.2608e-03  6.1712e-03  0:07:13 1934

  iter  continuity  x-velocity  y-velocity  z-velocity      energy           k       omega     time/iter
    67  1.3610e-02  2.3208e-03  1.1155e-02  2.9435e-01  1.3591e-02  8.1510e-03  6.1349e-03  0:05:47 1933
    68  1.3279e-02  2.3422e-03  1.0953e-02  2.7814e-01  1.3260e-02  8.0132e-03  6.0914e-03  0:04:37 1932
    69  1.2957e-02  2.3544e-03  1.0771e-02  2.6297e-01  1.2939e-02  7.9645e-03  6.1003e-03  0:03:42 1931
    70  1.2698e-02  2.3571e-03  1.0608e-02  2.5007e-01  1.2681e-02  7.9767e-03  6.0865e-03  0:02:57 1930
    71  1.2476e-02  2.3631e-03  1.0468e-02  2.4127e-01  1.2459e-02  7.9409e-03  6.0502e-03  0:02:22 1929
    72  1.2261e-02  2.3767e-03  1.0343e-02  2.3801e-01  1.2245e-02  7.8576e-03  6.0132e-03  0:01:53 1928
    73  1.2070e-02  2.3974e-03  1.0219e-02  2.4109e-01  1.2054e-02  7.8068e-03  5.9682e-03  0:01:31 1927
    74  1.1908e-02  2.4234e-03  1.0107e-02  2.5087e-01  1.1893e-02  7.7663e-03  5.9226e-03  0:01:12 1926
    75  1.1799e-02  2.4372e-03  1.0009e-02  2.6653e-01  1.1786e-02  7.7607e-03  5.8712e-03  0:07:23 1925
    76  1.1747e-02  2.4552e-03  9.9308e-03  2.8719e-01  1.1735e-02  7.7534e-03  5.8266e-03  0:05:54 1924
    77  1.1743e-02  2.4826e-03  9.8657e-03  3.1143e-01  1.1732e-02  7.7281e-03  5.7433e-03  0:04:43 1923

  iter  continuity  x-velocity  y-velocity  z-velocity      energy           k       omega     time/iter
    78  1.1826e-02  2.5173e-03  9.8345e-03  3.3725e-01  1.1818e-02  7.7107e-03  5.6715e-03  0:03:46 1922
    79  1.2013e-02  2.5540e-03  9.8343e-03  3.6387e-01  1.2006e-02  7.7295e-03  5.6056e-03  0:03:01 1921
    80  1.2315e-02  2.6039e-03  9.8700e-03  3.9017e-01  1.2310e-02  7.7402e-03  5.5525e-03  0:02:25 1920
    81  1.2721e-02  2.6533e-03  9.9392e-03  4.1470e-01  1.2718e-02  7.7697e-03  5.4940e-03  0:01:56 1919
    82  1.3203e-02  2.7072e-03  1.0032e-02  4.3728e-01  1.3202e-02  7.7722e-03  5.4379e-03  0:01:33 1918
    83  1.3737e-02  2.7633e-03  1.0141e-02  4.5664e-01  1.3737e-02  7.7873e-03  5.3709e-03  0:01:14 1917
    84  1.4233e-02  2.8195e-03  1.0263e-02  4.7272e-01  1.4234e-02  7.7881e-03  5.2919e-03  0:00:59 1916
    85  1.4645e-02  2.8784e-03  1.0402e-02  4.8529e-01  1.4647e-02  7.7985e-03  5.2139e-03  0:07:10 1915
    86  1.4959e-02  2.9332e-03  1.0552e-02  4.9368e-01  1.4963e-02  7.8206e-03  5.1640e-03  0:05:44 1914
    87  1.5197e-02  2.9872e-03  1.0708e-02  4.9809e-01  1.5203e-02  7.8535e-03  5.1167e-03  0:04:35 1913
    88  1.5358e-02  3.0418e-03  1.0859e-02  4.9901e-01  1.5366e-02  7.8784e-03  5.0645e-03  0:03:40 1912

  iter  continuity  x-velocity  y-velocity  z-velocity      energy           k       omega     time/iter
    89  1.5460e-02  3.0960e-03  1.0992e-02  4.9628e-01  1.5469e-02  7.8786e-03  5.0329e-03  0:02:56 1911
    90  1.5487e-02  3.1561e-03  1.1099e-02  4.9009e-01  1.5498e-02  7.8799e-03  4.9916e-03  0:02:21 1910
    91  1.5461e-02  3.2193e-03  1.1168e-02  4.8140e-01  1.5473e-02  7.8933e-03  4.9599e-03  0:01:52 1909
    92  1.5393e-02  3.2802e-03  1.1189e-02  4.7195e-01  1.5405e-02  7.9193e-03  4.9173e-03  0:01:30 1908
    93  1.5290e-02  3.3291e-03  1.1167e-02  4.5987e-01  1.5302e-02  7.9450e-03  4.8798e-03  0:01:12 1907
    94  1.5153e-02  3.3685e-03  1.1114e-02  4.4812e-01  1.5165e-02  7.9616e-03  4.8489e-03  0:00:57 1906
    95  1.4986e-02  3.3918e-03  1.1032e-02  4.3616e-01  1.4997e-02  7.9783e-03  4.8265e-03  0:07:07 1905
    96  1.4784e-02  3.3968e-03  1.0921e-02  4.2429e-01  1.4794e-02  7.9953e-03  4.8083e-03  0:05:41 1904
    97  1.4534e-02  3.3892e-03  1.0791e-02  4.1369e-01  1.4543e-02  8.0188e-03  4.7869e-03  0:04:33 1903
    98  1.4225e-02  3.3663e-03  1.0644e-02  4.0509e-01  1.4233e-02  8.0380e-03  4.7762e-03  0:03:38 1902
    99  1.3860e-02  3.3331e-03  1.0492e-02  3.9912e-01  1.3867e-02  8.0683e-03  4.7794e-03  0:02:55 1901

  iter  continuity  x-velocity  y-velocity  z-velocity      energy           k       omega     time/iter
   100  1.3429e-02  3.2903e-03  1.0333e-02  3.9603e-01  1.3434e-02  8.0966e-03  4.7707e-03  0:02:20 1900
   101  1.2932e-02  3.2394e-03  1.0175e-02  3.9530e-01  1.2935e-02  8.1319e-03  4.7526e-03  0:01:52 1899
   102  1.2385e-02  3.1850e-03  1.0023e-02  3.9638e-01  1.2387e-02  8.1786e-03  4.7544e-03  0:01:29 1898
   103  1.1804e-02  3.1221e-03  9.8794e-03  3.9874e-01  1.1805e-02  8.2376e-03  4.7730e-03  0:01:11 1897
   104  1.1209e-02  3.0498e-03  9.7490e-03  4.0198e-01  1.1208e-02  8.3147e-03  4.7862e-03  0:07:16 1896
   105  1.0652e-02  2.9737e-03  9.6386e-03  4.0551e-01  1.0649e-02  8.4036e-03  4.8183e-03  0:05:49 1895
   106  1.0182e-02  2.8998e-03  9.5556e-03  4.0883e-01  1.0178e-02  8.4864e-03  4.8353e-03  0:04:39 1894
   107  9.8092e-03  2.8364e-03  9.4992e-03  4.1122e-01  9.8031e-03  8.5695e-03  4.8616e-03  0:03:43 1893
   108  9.5526e-03  2.7813e-03  9.4685e-03  4.1234e-01  9.5452e-03  8.6456e-03  4.8788e-03  0:02:58 1892
   109  9.4606e-03  2.7233e-03  9.4739e-03  4.1200e-01  9.4522e-03  8.6767e-03  4.8924e-03  0:02:23 1891
   110  9.5538e-03  2.6643e-03  9.5121e-03  4.0990e-01  9.5446e-03  8.7101e-03  4.9205e-03  0:01:54 1890

  iter  continuity  x-velocity  y-velocity  z-velocity      energy           k       omega     time/iter
   111  9.7902e-03  2.6119e-03  9.5739e-03  4.0587e-01  9.7803e-03  8.7493e-03  4.9403e-03  0:01:31 1889
   112  1.0136e-02  2.5672e-03  9.6470e-03  3.9983e-01  1.0126e-02  8.7887e-03  4.9474e-03  0:01:13 1888
   113  1.0564e-02  2.5270e-03  9.7250e-03  3.9180e-01  1.0553e-02  8.8153e-03  4.9337e-03  0:00:58 1887
   114  1.1030e-02  2.4927e-03  9.7917e-03  3.8226e-01  1.1018e-02  8.8718e-03  4.9206e-03  0:07:04 1886
   115  1.1504e-02  2.4673e-03  9.8428e-03  4.5136e-01  1.1491e-02  8.9298e-03  4.9123e-03  0:05:39 1885
   116  1.1942e-02  2.4507e-03  9.8752e-03  4.2195e-01  1.1928e-02  9.0163e-03  4.8996e-03  0:04:31 1884
   117  1.2351e-02  2.4412e-03  9.8878e-03  3.9167e-01  1.2336e-02  9.1445e-03  4.8849e-03  0:03:37 1883
   118  1.2732e-02  2.4406e-03  9.8813e-03  3.7349e-01  1.2716e-02  9.2765e-03  4.8611e-03  0:02:53 1882
   119  1.3104e-02  2.4569e-03  9.8663e-03  3.6057e-01  1.3086e-02  9.4154e-03  4.8263e-03  0:02:19 1881
   120  1.3476e-02  2.4965e-03  9.8369e-03  3.4695e-01  1.3456e-02  9.5236e-03  4.8147e-03  0:01:51 1880
   121  1.3769e-02  2.5615e-03  9.8087e-03  3.3161e-01  1.3747e-02  9.6279e-03  4.7798e-03  0:01:29 1879

  iter  continuity  x-velocity  y-velocity  z-velocity      energy           k       omega     time/iter
   122  1.4032e-02  2.6371e-03  9.8068e-03  3.1711e-01  1.4008e-02  9.7325e-03  4.7454e-03  0:01:11 1878
   123  1.4303e-02  2.7212e-03  9.8373e-03  3.0426e-01  1.4277e-02  9.8185e-03  4.7340e-03  0:00:57 1877
   124  1.4631e-02  2.8179e-03  9.9473e-03  2.9393e-01  1.4604e-02  9.9157e-03  4.7230e-03  0:07:00 1876
   125  1.4830e-02  2.8941e-03  1.0003e-02  2.8556e-01  1.4801e-02  1.0025e-02  4.7062e-03  0:05:36 1875
   126  1.5067e-02  2.9914e-03  1.0124e-02  2.7942e-01  1.5036e-02  1.0133e-02  4.7004e-03  0:04:29 1874
   127  1.5308e-02  3.0753e-03  1.0286e-02  2.7627e-01  1.5275e-02  1.0232e-02  4.7001e-03  0:03:35 1873
   128  1.5562e-02  3.1493e-03  1.0477e-02  2.7518e-01  1.5528e-02  1.0357e-02  4.7063e-03  0:02:52 1872
   129  1.5833e-02  3.2081e-03  1.0696e-02  2.7619e-01  1.5798e-02  1.0426e-02  4.7160e-03  0:02:17 1871
   130  1.6015e-02  3.2712e-03  1.0943e-02  2.7989e-01  1.5979e-02  1.0498e-02  4.7137e-03  0:01:50 1870
   131  1.6146e-02  3.3326e-03  1.1206e-02  2.8397e-01  1.6109e-02  1.0565e-02  4.7017e-03  0:01:28 1869
   132  1.6186e-02  3.4059e-03  1.1476e-02  2.8746e-01  1.6148e-02  1.0595e-02  4.6825e-03  0:01:10 1868

  iter  continuity  x-velocity  y-velocity  z-velocity      energy           k       omega     time/iter
   133  1.6162e-02  3.4836e-03  1.1760e-02  2.9109e-01  1.6124e-02  1.0612e-02  4.6649e-03  0:07:10 1867
   134  1.6076e-02  3.5627e-03  1.2048e-02  2.9566e-01  1.6038e-02  1.0648e-02  4.6245e-03  0:05:43 1866
   135  1.5979e-02  3.6325e-03  1.2335e-02  3.0061e-01  1.5940e-02  1.0666e-02  4.5776e-03  0:04:35 1865
   136  1.5727e-02  3.6972e-03  1.2621e-02  3.0665e-01  1.5689e-02  1.0685e-02  4.5313e-03  0:03:40 1864
   137  1.5482e-02  3.7660e-03  1.2906e-02  3.1271e-01  1.5444e-02  1.0711e-02  4.4912e-03  0:02:56 1863
   138  1.5165e-02  3.8263e-03  1.3173e-02  3.1811e-01  1.5128e-02  1.0744e-02  4.4594e-03  0:02:20 1862
   139  1.4779e-02  3.8869e-03  1.3425e-02  3.2309e-01  1.4742e-02  1.0777e-02  4.4229e-03  0:01:52 1861
   140  1.4391e-02  3.9393e-03  1.3658e-02  3.2762e-01  1.4356e-02  1.0815e-02  4.3882e-03  0:01:30 1860
   141  1.4009e-02  3.9793e-03  1.3879e-02  3.3181e-01  1.3976e-02  1.0857e-02  4.3531e-03  0:01:12 1859
   142  1.3685e-02  4.0121e-03  1.4065e-02  3.3543e-01  1.3655e-02  1.0882e-02  4.3276e-03  0:00:57 1858
   143  1.3486e-02  4.0496e-03  1.4217e-02  3.3802e-01  1.3460e-02  1.0897e-02  4.3016e-03  0:06:57 1857

  iter  continuity  x-velocity  y-velocity  z-velocity      energy           k       omega     time/iter
   144  1.3298e-02  4.0796e-03  1.4331e-02  3.3968e-01  1.3274e-02  1.0917e-02  4.2835e-03  0:05:34 1856
   145  1.3152e-02  4.0882e-03  1.4405e-02  3.4016e-01  1.3132e-02  1.0894e-02  4.2616e-03  0:04:27 1855
   146  1.3058e-02  4.0788e-03  1.4444e-02  3.3970e-01  1.3042e-02  1.0878e-02  4.2357e-03  0:03:33 1854
   147  1.2854e-02  4.0612e-03  1.4447e-02  3.3839e-01  1.2841e-02  1.0847e-02  4.2217e-03  0:02:51 1853
   148  1.2644e-02  4.0383e-03  1.4419e-02  3.3638e-01  1.2633e-02  1.0845e-02  4.2086e-03  0:02:16 1852
   149  1.2643e-02  4.0032e-03  1.4361e-02  3.3376e-01  1.2635e-02  1.0837e-02  4.1950e-03  0:01:49 1851
   150  1.2746e-02  3.9579e-03  1.4272e-02  3.3032e-01  1.2741e-02  1.0845e-02  4.1913e-03  0:01:27 1850
   151  1.2737e-02  3.9112e-03  1.4129e-02  3.2609e-01  1.2733e-02  1.0872e-02  4.2015e-03  0:01:10 1849
   152  1.2507e-02  3.8473e-03  1.3955e-02  3.2106e-01  1.2504e-02  1.0892e-02  4.2133e-03  0:00:56 1848
   153  1.2152e-02  3.7776e-03  1.3751e-02  3.1518e-01  1.2149e-02  1.0922e-02  4.2332e-03  0:06:54 1847
   154  1.1830e-02  3.7038e-03  1.3522e-02  3.0950e-01  1.1825e-02  1.0945e-02  4.2401e-03  0:05:31 1846

  iter  continuity  x-velocity  y-velocity  z-velocity      energy           k       omega     time/iter
   155  1.1562e-02  3.6235e-03  1.3278e-02  3.0383e-01  1.1556e-02  1.0950e-02  4.2340e-03  0:04:25 1845
   156  1.1398e-02  3.5428e-03  1.3040e-02  2.9848e-01  1.1391e-02  1.0941e-02  4.2481e-03  0:03:32 1844
   157  1.1491e-02  3.4668e-03  1.2855e-02  2.9404e-01  1.1483e-02  1.0926e-02  4.2599e-03  0:02:49 1843
   158  1.1476e-02  3.4011e-03  1.2639e-02  2.9090e-01  1.1466e-02  1.0930e-02  4.2709e-03  0:02:15 1842
   159  1.1452e-02  3.3443e-03  1.2409e-02  2.8869e-01  1.1441e-02  1.0933e-02  4.2865e-03  0:01:48 1841
   160  1.1460e-02  3.2968e-03  1.2192e-02  2.8776e-01  1.1447e-02  1.0947e-02  4.3070e-03  0:01:26 1840
   161  1.1349e-02  3.2554e-03  1.1963e-02  2.8819e-01  1.1335e-02  1.0953e-02  4.3225e-03  0:01:09 1839
   162  1.1407e-02  3.2271e-03  1.1765e-02  2.8930e-01  1.1391e-02  1.0968e-02  4.3261e-03  0:07:03 1838
   163  1.1580e-02  3.2159e-03  1.1590e-02  2.9115e-01  1.1563e-02  1.0976e-02  4.3214e-03  0:05:38 1837
   164  1.1797e-02  3.2242e-03  1.1425e-02  2.9324e-01  1.1779e-02  1.0992e-02  4.3188e-03  0:04:30 1836
   165  1.2073e-02  3.2501e-03  1.1263e-02  2.9795e-01  1.2054e-02  1.0988e-02  4.3058e-03  0:03:36 1835

  iter  continuity  x-velocity  y-velocity  z-velocity      energy           k       omega     time/iter
   166  1.2391e-02  3.2892e-03  1.1135e-02  3.0287e-01  1.2372e-02  1.0989e-02  4.2920e-03  0:02:53 1834
   167  1.2686e-02  3.3341e-03  1.1027e-02  3.0879e-01  1.2667e-02  1.1026e-02  4.2981e-03  0:02:18 1833
   168  1.2916e-02  3.3880e-03  1.0929e-02  3.1508e-01  1.2896e-02  1.1063e-02  4.3104e-03  0:01:50 1832
   169  1.3086e-02  3.4482e-03  1.0844e-02  3.2082e-01  1.3067e-02  1.1088e-02  4.3463e-03  0:01:28 1831
   170  1.3264e-02  3.5120e-03  1.0777e-02  3.2982e-01  1.3244e-02  1.1116e-02  4.3766e-03  0:01:11 1830
   171  1.3393e-02  3.5725e-03  1.0717e-02  3.3232e-01  1.3373e-02  1.1150e-02  4.4040e-03  0:07:02 1829
   172  1.3488e-02  3.6175e-03  1.0658e-02  3.3409e-01  1.3468e-02  1.1188e-02  4.4264e-03  0:05:38 1828
   173  1.3546e-02  3.6509e-03  1.0612e-02  3.3565e-01  1.3527e-02  1.1238e-02  4.4285e-03  0:04:30 1827
   174  1.3533e-02  3.6534e-03  1.0566e-02  3.3720e-01  1.3514e-02  1.1265e-02  4.4161e-03  0:03:36 1826
   175  1.3485e-02  3.6553e-03  1.0540e-02  3.3420e-01  1.3465e-02  1.1275e-02  4.4062e-03  0:02:53 1825
   176  1.3357e-02  3.6532e-03  1.0530e-02  3.3333e-01  1.3338e-02  1.1283e-02  4.3963e-03  0:02:18 1824

  iter  continuity  x-velocity  y-velocity  z-velocity      energy           k       omega     time/iter
   177  1.3188e-02  3.6481e-03  1.0528e-02  3.3488e-01  1.3169e-02  1.1300e-02  4.4027e-03  0:01:50 1823
   178  1.2952e-02  3.6412e-03  1.0525e-02  3.3788e-01  1.2934e-02  1.1314e-02  4.4040e-03  0:01:28 1822
   179  1.2654e-02  3.6143e-03  1.0519e-02  3.3591e-01  1.2636e-02  1.1329e-02  4.3944e-03  0:01:11 1821
   180  1.2323e-02  3.5813e-03  1.0517e-02  3.3174e-01  1.2305e-02  1.1359e-02  4.3943e-03  0:00:56 1820
   181  1.1963e-02  3.5519e-03  1.0508e-02  3.2716e-01  1.1945e-02  1.1408e-02  4.3759e-03  0:06:49 1819
   182  1.1566e-02  3.5187e-03  1.0507e-02  3.2078e-01  1.1549e-02  1.1424e-02  4.3683e-03  0:05:27 1818
   183  1.1128e-02  3.4799e-03  1.0516e-02  3.1328e-01  1.1111e-02  1.1430e-02  4.3673e-03  0:04:21 1817
   184  1.0715e-02  3.4452e-03  1.0535e-02  3.0645e-01  1.0698e-02  1.1449e-02  4.3696e-03  0:03:29 1816
   185  1.0299e-02  3.4108e-03  1.0559e-02  2.9984e-01  1.0282e-02  1.1485e-02  4.3601e-03  0:02:47 1815
   186  9.9499e-03  3.3789e-03  1.0578e-02  2.9412e-01  9.9336e-03  1.1521e-02  4.3571e-03  0:02:14 1814
   187  9.6443e-03  3.3467e-03  1.0593e-02  2.8852e-01  9.6284e-03  1.1577e-02  4.3327e-03  0:01:47 1813

  iter  continuity  x-velocity  y-velocity  z-velocity      energy           k       omega     time/iter
   188  9.4197e-03  3.3165e-03  1.0607e-02  2.8450e-01  9.4043e-03  1.1639e-02  4.3125e-03  0:01:25 1812
   189  9.2362e-03  3.2861e-03  1.0607e-02  2.8085e-01  9.2214e-03  1.1704e-02  4.3107e-03  0:01:08 1811
   190  9.0730e-03  3.2631e-03  1.0607e-02  2.8054e-01  9.0590e-03  1.1762e-02  4.3067e-03  0:00:55 1810
   191  8.9298e-03  3.2400e-03  1.0601e-02  2.7598e-01  8.9167e-03  1.1791e-02  4.3079e-03  0:06:45 1809
   192  8.8470e-03  3.2232e-03  1.0581e-02  2.7302e-01  8.8348e-03  1.1819e-02  4.3036e-03  0:05:24 1808
   193  8.7729e-03  3.2076e-03  1.0540e-02  2.6990e-01  8.7617e-03  1.1858e-02  4.3018e-03  0:04:19 1807
   194  8.7191e-03  3.1865e-03  1.0477e-02  2.6743e-01  8.7088e-03  1.1867e-02  4.3120e-03  0:03:27 1806
   195  8.6923e-03  3.1719e-03  1.0399e-02  2.6571e-01  8.6828e-03  1.1876e-02  4.3201e-03  0:02:46 1805
   196  8.6636e-03  3.1706e-03  1.0332e-02  2.6484e-01  8.6547e-03  1.1880e-02  4.3267e-03  0:02:12 1804
   197  8.6572e-03  3.1806e-03  1.0275e-02  2.6438e-01  8.6490e-03  1.1893e-02  4.3359e-03  0:01:46 1803
   198  8.6462e-03  3.1999e-03  1.0225e-02  2.6236e-01  8.6385e-03  1.1925e-02  4.3318e-03  0:01:25 1802

  iter  continuity  x-velocity  y-velocity  z-velocity      energy           k       omega     time/iter
   199  8.6380e-03  3.2115e-03  1.0184e-02  2.6047e-01  8.6308e-03  1.1951e-02  4.3129e-03  0:01:08 1801
   200  8.6521e-03  3.2173e-03  1.0141e-02  2.5890e-01  8.6453e-03  1.1963e-02  4.2948e-03  0:00:54 1800
   201  8.6619e-03  3.2167e-03  1.0092e-02  2.5644e-01  8.6554e-03  1.1972e-02  4.2850e-03  0:06:43 1799
   202  8.6536e-03  3.2187e-03  1.0036e-02  2.5592e-01  8.6475e-03  1.1932e-02  4.2604e-03  0:05:22 1798
   203  8.6161e-03  3.2178e-03  9.9657e-03  2.5563e-01  8.6105e-03  1.1905e-02  4.2382e-03  0:04:18 1797
   204  8.5906e-03  3.2185e-03  9.8856e-03  2.5530e-01  8.5852e-03  1.1876e-02  4.2182e-03  0:03:26 1796
   205  8.5823e-03  3.2175e-03  9.7841e-03  2.5093e-01  8.5772e-03  1.1838e-02  4.2167e-03  0:02:45 1795
   206  8.5874e-03  3.2115e-03  9.6663e-03  2.5082e-01  8.5824e-03  1.1794e-02  4.2021e-03  0:02:12 1794
   207  8.5918e-03  3.2080e-03  9.5456e-03  2.5028e-01  8.5868e-03  1.1765e-02  4.1821e-03  0:01:45 1793
   208  8.5764e-03  3.2024e-03  9.4277e-03  2.4862e-01  8.5713e-03  1.1740e-02  4.1593e-03  0:01:24 1792
   209  8.5326e-03  3.1920e-03  9.3234e-03  2.4685e-01  8.5273e-03  1.1771e-02  4.1460e-03  0:01:07 1791

  iter  continuity  x-velocity  y-velocity  z-velocity      energy           k       omega     time/iter
   210  8.4634e-03  3.1804e-03  9.2376e-03  2.4602e-01  8.4578e-03  1.1820e-02  4.1400e-03  0:06:52 1790
   211  8.3625e-03  3.1654e-03  9.1694e-03  2.4428e-01  8.3567e-03  1.1829e-02  4.1301e-03  0:05:29 1789
   212  8.2267e-03  3.1427e-03  9.1180e-03  2.4281e-01  8.2206e-03  1.1860e-02  4.1071e-03  0:04:23 1788
   213  8.0527e-03  3.1040e-03  9.0750e-03  2.4108e-01  8.0462e-03  1.2016e-02  4.0936e-03  0:03:31 1787
   214  7.8505e-03  3.0596e-03  9.0439e-03  2.4071e-01  7.8436e-03  1.2145e-02  4.0823e-03  0:02:48 1786
   215  7.6245e-03  3.0118e-03  9.0202e-03  2.4091e-01  7.6175e-03  1.2178e-02  4.0620e-03  0:02:15 1785
   216  7.3827e-03  2.9712e-03  9.0020e-03  2.4140e-01  7.3756e-03  1.2181e-02  4.0530e-03  0:01:48 1784
   217  7.1284e-03  2.9310e-03  8.9802e-03  2.4051e-01  7.1211e-03  1.2418e-02  4.0519e-03  0:01:26 1783
   218  6.8783e-03  2.8895e-03  8.9486e-03  2.3911e-01  6.8708e-03  1.2566e-02  4.0296e-03  0:01:09 1782
   219  6.6414e-03  2.8531e-03  8.9115e-03  2.3477e-01  6.6336e-03  1.2636e-02  4.0043e-03  0:00:55 1781
   220  6.4053e-03  2.8174e-03  8.8751e-03  2.3097e-01  6.3971e-03  1.2629e-02  3.9924e-03  0:06:40 1780

  iter  continuity  x-velocity  y-velocity  z-velocity      energy           k       omega     time/iter
   221  6.1669e-03  2.7826e-03  8.8406e-03  2.2921e-01  6.1582e-03  1.2783e-02  3.9962e-03  0:05:20 1779
   222  5.9405e-03  2.7513e-03  8.8064e-03  2.2889e-01  5.9315e-03  1.2998e-02  3.9816e-03  0:04:16 1778
   223  5.7455e-03  2.7243e-03  8.7765e-03  2.2971e-01  5.7362e-03  1.3080e-02  3.9680e-03  0:03:24 1777
   224  5.6080e-03  2.7064e-03  8.7563e-03  2.3156e-01  5.5983e-03  1.3139e-02  3.9367e-03  0:02:43 1776
   225  5.4892e-03  2.6938e-03  8.7485e-03  2.3282e-01  5.4790e-03  1.3007e-02  3.8973e-03  0:02:11 1775
   226  5.4148e-03  2.6745e-03  8.7462e-03  2.3405e-01  5.4042e-03  1.3060e-02  3.8672e-03  0:01:44 1774
   227  5.3575e-03  2.6470e-03  8.7506e-03  2.3491e-01  5.3468e-03  1.3175e-02  3.8438e-03  0:01:24 1773
   228  5.3180e-03  2.6227e-03  8.7549e-03  2.3617e-01  5.3075e-03  1.3185e-02  3.8322e-03  0:01:07 1772
   229  5.2704e-03  2.6067e-03  8.7528e-03  2.3663e-01  5.2601e-03  1.3050e-02  3.8050e-03  0:06:48 1771
   230  5.2270e-03  2.5972e-03  8.7417e-03  2.3586e-01  5.2171e-03  1.2883e-02  3.7628e-03  0:05:26 1770
   231  5.1841e-03  2.5953e-03  8.7221e-03  2.3571e-01  5.1744e-03  1.2782e-02  3.7348e-03  0:04:21 1769

  iter  continuity  x-velocity  y-velocity  z-velocity      energy           k       omega     time/iter
   232  5.1382e-03  2.5961e-03  8.6922e-03  2.3589e-01  5.1288e-03  1.2791e-02  3.7239e-03  0:03:28 1768
   233  5.0913e-03  2.6014e-03  8.6559e-03  2.3781e-01  5.0821e-03  1.2799e-02  3.7009e-03  0:02:47 1767
   234  5.0519e-03  2.6117e-03  8.6129e-03  2.4146e-01  5.0427e-03  1.2667e-02  3.6700e-03  0:02:13 1766
   235  5.0462e-03  2.6269e-03  8.5684e-03  2.4579e-01  5.0371e-03  1.2520e-02  3.6447e-03  0:01:46 1765
   236  5.0735e-03  2.6468e-03  8.5308e-03  2.5043e-01  5.0645e-03  1.2341e-02  3.6090e-03  0:01:25 1764
   237  5.1198e-03  2.6657e-03  8.5015e-03  2.5485e-01  5.1108e-03  1.2180e-02  3.5974e-03  0:07:01 1763
   238  5.1787e-03  2.6805e-03  8.4816e-03  2.5972e-01  5.1697e-03  1.2170e-02  3.5896e-03  0:05:36 1762
   239  5.2597e-03  2.6853e-03  8.4726e-03  2.6441e-01  5.2507e-03  1.2147e-02  3.5739e-03  0:04:29 1761
   240  5.3448e-03  2.6794e-03  8.4754e-03  2.6787e-01  5.3359e-03  1.2061e-02  3.5585e-03  0:03:35 1760
   241  5.4530e-03  2.6662e-03  8.4804e-03  2.6992e-01  5.4444e-03  1.1866e-02  3.5267e-03  0:02:52 1759
   242  5.5372e-03  2.6594e-03  8.4965e-03  2.7222e-01  5.5290e-03  1.1675e-02  3.4911e-03  0:02:17 1758

  iter  continuity  x-velocity  y-velocity  z-velocity      energy           k       omega     time/iter
   243  5.5865e-03  2.6574e-03  8.5190e-03  2.7295e-01  5.5788e-03  1.1464e-02  3.4610e-03  0:01:50 1757
   244  5.5943e-03  2.6570e-03  8.5491e-03  2.7344e-01  5.5870e-03  1.1322e-02  3.4414e-03  0:01:28 1756
   245  5.5741e-03  2.6600e-03  8.5802e-03  2.7375e-01  5.5672e-03  1.1278e-02  3.4229e-03  0:01:10 1755
   246  5.5802e-03  2.6648e-03  8.6147e-03  2.7494e-01  5.5735e-03  1.1241e-02  3.4074e-03  0:06:47 1754
   247  5.5972e-03  2.6688e-03  8.6508e-03  2.7688e-01  5.5906e-03  1.1183e-02  3.3959e-03  0:05:25 1753
   248  5.6233e-03  2.6711e-03  8.6935e-03  2.7931e-01  5.6168e-03  1.1088e-02  3.3762e-03  0:04:20 1752
   249  5.6709e-03  2.6738e-03  8.7462e-03  2.8243e-01  5.6644e-03  1.0944e-02  3.3480e-03  0:03:28 1751
   250  5.7062e-03  2.6764e-03  8.8042e-03  2.8516e-01  5.6996e-03  1.0808e-02  3.3227e-03  0:02:46 1750
   251  5.7380e-03  2.6791e-03  8.8693e-03  2.8754e-01  5.7314e-03  1.0664e-02  3.3051e-03  0:02:13 1749
   252  5.7696e-03  2.6808e-03  8.9459e-03  2.8984e-01  5.7629e-03  1.0569e-02  3.2993e-03  0:01:46 1748
   253  5.8008e-03  2.6822e-03  9.0286e-03  2.9254e-01  5.7940e-03  1.0515e-02  3.2960e-03  0:01:25 1747

  iter  continuity  x-velocity  y-velocity  z-velocity      energy           k       omega     time/iter
   254  5.8361e-03  2.6814e-03  9.1117e-03  2.9462e-01  5.8292e-03  1.0481e-02  3.2841e-03  0:01:08 1746
   255  5.8697e-03  2.6749e-03  9.2064e-03  2.9609e-01  5.8628e-03  1.0438e-02  3.2659e-03  0:00:54 1745
   256  5.9332e-03  2.6705e-03  9.3127e-03  2.9850e-01  5.9264e-03  1.0364e-02  3.2429e-03  0:06:32 1744
   257  5.9811e-03  2.6717e-03  9.4212e-03  3.0199e-01  5.9745e-03  1.0275e-02  3.2148e-03  0:05:14 1743
   258  6.0065e-03  2.6768e-03  9.5305e-03  3.0541e-01  5.9999e-03  1.0167e-02  3.1914e-03  0:04:11 1742
   259  6.0180e-03  2.6823e-03  9.6379e-03  3.0922e-01  6.0115e-03  1.0058e-02  3.1750e-03  0:03:20 1741
   260  6.0207e-03  2.6899e-03  9.7421e-03  3.1326e-01  6.0141e-03  9.9487e-03  3.1621e-03  0:02:40 1740
   261  6.0110e-03  2.6983e-03  9.8482e-03  3.1754e-01  6.0042e-03  9.8942e-03  3.1461e-03  0:02:08 1739
   262  5.9826e-03  2.7056e-03  9.9529e-03  3.2290e-01  5.9756e-03  9.8475e-03  3.1375e-03  0:01:42 1738
   263  5.9444e-03  2.7108e-03  1.0061e-02  3.2787e-01  5.9370e-03  9.8077e-03  3.1320e-03  0:01:22 1737
   264  5.8977e-03  2.7161e-03  1.0171e-02  3.3184e-01  5.8900e-03  9.7650e-03  3.1246e-03  0:01:06 1736

  iter  continuity  x-velocity  y-velocity  z-velocity      energy           k       omega     time/iter
   265  5.8487e-03  2.7212e-03  1.0287e-02  3.3578e-01  5.8407e-03  9.7135e-03  3.1145e-03  0:06:39 1735
   266  5.8145e-03  2.7267e-03  1.0403e-02  3.3999e-01  5.8062e-03  9.6458e-03  3.0993e-03  0:05:19 1734
   267  5.7843e-03  2.7310e-03  1.0521e-02  3.4540e-01  5.7757e-03  9.5601e-03  3.0851e-03  0:04:15 1733
   268  5.7662e-03  2.7354e-03  1.0647e-02  3.5240e-01  5.7573e-03  9.4693e-03  3.0668e-03  0:03:24 1732
   269  5.7744e-03  2.7395e-03  1.0777e-02  3.6019e-01  5.7653e-03  9.4280e-03  3.0548e-03  0:02:43 1731
   270  5.7957e-03  2.7433e-03  1.0911e-02  3.6915e-01  5.7864e-03  9.3790e-03  3.0462e-03  0:02:10 1730
   271  5.8277e-03  2.7434e-03  1.1043e-02  3.7917e-01  5.8183e-03  9.3355e-03  3.0318e-03  0:01:44 1729
   272  5.8770e-03  2.7410e-03  1.1170e-02  3.8938e-01  5.8675e-03  9.2931e-03  3.0171e-03  0:01:23 1728
   273  5.9285e-03  2.7414e-03  1.1294e-02  3.9988e-01  5.9189e-03  9.2615e-03  3.0045e-03  0:01:07 1727
   274  5.9892e-03  2.7432e-03  1.1412e-02  4.1056e-01  5.9797e-03  9.2090e-03  2.9933e-03  0:00:53 1726
   275  6.0533e-03  2.7447e-03  1.1527e-02  4.2082e-01  6.0437e-03  9.1369e-03  2.9768e-03  0:06:28 1725

  iter  continuity  x-velocity  y-velocity  z-velocity      energy           k       omega     time/iter
   276  6.1231e-03  2.7475e-03  1.1641e-02  4.3102e-01  6.1134e-03  9.0476e-03  2.9678e-03  0:05:10 1724
   277  6.1937e-03  2.7500e-03  1.1756e-02  4.4062e-01  6.1840e-03  8.9590e-03  2.9634e-03  0:04:08 1723
   278  6.2647e-03  2.7502e-03  1.1866e-02  4.5002e-01  6.2549e-03  8.8835e-03  2.9467e-03  0:03:18 1722
   279  6.3328e-03  2.7484e-03  1.1977e-02  4.5981e-01  6.3229e-03  8.8135e-03  2.9366e-03  0:02:38 1721
   280  6.4048e-03  2.7448e-03  1.2089e-02  4.6843e-01  6.3948e-03  8.7598e-03  2.9274e-03  0:02:07 1720
   281  6.4820e-03  2.7406e-03  1.2199e-02  4.7733e-01  6.4719e-03  8.7203e-03  2.9155e-03  0:01:41 1719
   282  6.5635e-03  2.7373e-03  1.2306e-02  4.8441e-01  6.5533e-03  8.6800e-03  2.9049e-03  0:01:21 1718
   283  6.6581e-03  2.7339e-03  1.2411e-02  4.9100e-01  6.6478e-03  8.6372e-03  2.8909e-03  0:01:05 1717
   284  6.7408e-03  2.7310e-03  1.2510e-02  4.9865e-01  6.7304e-03  8.5775e-03  2.8761e-03  0:06:35 1716
   285  6.8195e-03  2.7304e-03  1.2604e-02  5.0598e-01  6.8091e-03  8.5207e-03  2.8616e-03  0:05:16 1715
   286  6.8916e-03  2.7319e-03  1.2693e-02  5.1380e-01  6.8812e-03  8.4849e-03  2.8500e-03  0:04:12 1714

  iter  continuity  x-velocity  y-velocity  z-velocity      energy           k       omega     time/iter
   287  6.9661e-03  2.7339e-03  1.2777e-02  5.2062e-01  6.9556e-03  8.4429e-03  2.8381e-03  0:03:22 1713
   288  7.0317e-03  2.7368e-03  1.2857e-02  5.2736e-01  7.0212e-03  8.4052e-03  2.8271e-03  0:02:41 1712
   289  7.0957e-03  2.7402e-03  1.2931e-02  5.3365e-01  7.0851e-03  8.3731e-03  2.8155e-03  0:02:09 1711
   290  7.1579e-03  2.7434e-03  1.2999e-02  5.3713e-01  7.1473e-03  8.3653e-03  2.8005e-03  0:01:43 1710
   291  7.2119e-03  2.7456e-03  1.3058e-02  5.4030e-01  7.2013e-03  8.3734e-03  2.7887e-03  0:01:22 1709
   292  7.2596e-03  2.7467e-03  1.3114e-02  5.4324e-01  7.2490e-03  8.3746e-03  2.7779e-03  0:01:06 1708
   293  7.3033e-03  2.7473e-03  1.3163e-02  5.4653e-01  7.2926e-03  8.3707e-03  2.7705e-03  0:00:53 1707
   294  7.3488e-03  2.7470e-03  1.3207e-02  5.4851e-01  7.3380e-03  8.3636e-03  2.7636e-03  0:06:23 1706
   295  7.3918e-03  2.7484e-03  1.3243e-02  5.5106e-01  7.3809e-03  8.3652e-03  2.7501e-03  0:05:07 1705
   296  7.4212e-03  2.7504e-03  1.3274e-02  5.5335e-01  7.4103e-03  8.3478e-03  2.7412e-03  0:04:05 1704
   297  7.4360e-03  2.7515e-03  1.3299e-02  5.5441e-01  7.4251e-03  8.3351e-03  2.7369e-03  0:03:16 1703

  iter  continuity  x-velocity  y-velocity  z-velocity      energy           k       omega     time/iter
   298  7.4436e-03  2.7523e-03  1.3318e-02  5.5496e-01  7.4326e-03  8.3259e-03  2.7338e-03  0:02:37 1702
   299  7.4492e-03  2.7494e-03  1.3332e-02  5.5541e-01  7.4382e-03  8.3370e-03  2.7314e-03  0:02:05 1701
   300  7.4559e-03  2.7432e-03  1.3337e-02  5.5567e-01  7.4448e-03  8.3510e-03  2.7272e-03  0:01:40 1700
   301  7.4563e-03  2.7334e-03  1.3338e-02  5.5641e-01  7.4451e-03  8.3663e-03  2.7156e-03  0:01:20 1699
   302  7.4487e-03  2.7208e-03  1.3337e-02  5.5812e-01  7.4375e-03  8.3646e-03  2.7097e-03  0:01:04 1698
   303  7.4345e-03  2.7076e-03  1.3334e-02  5.5999e-01  7.4233e-03  8.3646e-03  2.6988e-03  0:00:51 1697
   304  7.4169e-03  2.6952e-03  1.3331e-02  5.6215e-01  7.4057e-03  8.3735e-03  2.6909e-03  0:06:20 1696
   305  7.3907e-03  2.6835e-03  1.3323e-02  5.6537e-01  7.3794e-03  8.3791e-03  2.6836e-03  0:05:04 1695
   306  7.3549e-03  2.6711e-03  1.3314e-02  5.6875e-01  7.3435e-03  8.3754e-03  2.6789e-03  0:04:03 1694
   307  7.3044e-03  2.6584e-03  1.3301e-02  5.7285e-01  7.2929e-03  8.3581e-03  2.6762e-03  0:03:14 1693
   308  7.2344e-03  2.6463e-03  1.3286e-02  5.7699e-01  7.2229e-03  8.3487e-03  2.6782e-03  0:02:35 1692

  iter  continuity  x-velocity  y-velocity  z-velocity      energy           k       omega     time/iter
   309  7.1412e-03  2.6336e-03  1.3267e-02  5.8249e-01  7.1297e-03  8.3277e-03  2.6781e-03  0:02:04 1691
   310  7.0383e-03  2.6221e-03  1.3245e-02  5.8766e-01  7.0268e-03  8.3170e-03  2.6778e-03  0:01:39 1690
   311  6.9310e-03  2.6101e-03  1.3217e-02  5.9313e-01  6.9195e-03  8.3082e-03  2.6774e-03  0:01:19 1689
   312  6.8125e-03  2.5972e-03  1.3187e-02  5.9784e-01  6.8010e-03  8.2884e-03  2.6795e-03  0:01:03 1688
   313  6.6628e-03  2.5852e-03  1.3151e-02  6.0278e-01  6.6513e-03  8.2739e-03  2.6801e-03  0:00:51 1687
   314  6.4739e-03  2.5663e-03  1.3112e-02  6.0681e-01  6.4624e-03  8.2595e-03  2.6777e-03  0:06:18 1686
   315  6.2879e-03  2.5473e-03  1.3071e-02  6.1133e-01  6.2765e-03  8.2427e-03  2.6766e-03  0:05:02 1685
   316  6.0985e-03  2.5314e-03  1.3029e-02  6.1501e-01  6.0872e-03  8.2109e-03  2.6752e-03  0:04:01 1684
   317  5.8951e-03  2.5174e-03  1.2986e-02  6.1961e-01  5.8840e-03  8.2000e-03  2.6757e-03  0:03:13 1683
   318  5.6782e-03  2.5031e-03  1.2940e-02  6.2349e-01  5.6673e-03  8.1771e-03  2.6775e-03  0:02:34 1682
   319  5.4728e-03  2.4909e-03  1.2895e-02  6.2631e-01  5.4620e-03  8.1579e-03  2.6778e-03  0:02:03 1681

  iter  continuity  x-velocity  y-velocity  z-velocity      energy           k       omega     time/iter
   320  5.2953e-03  2.4793e-03  1.2851e-02  6.2708e-01  5.2847e-03  8.1377e-03  2.6794e-03  0:01:39 1680
   321  5.1543e-03  2.4700e-03  1.2806e-02  6.2694e-01  5.1439e-03  8.1364e-03  2.6813e-03  0:01:19 1679
   322  5.0283e-03  2.4670e-03  1.2760e-02  6.2657e-01  5.0181e-03  8.1203e-03  2.6839e-03  0:01:03 1678
   323  4.9293e-03  2.4664e-03  1.2715e-02  6.2594e-01  4.9192e-03  8.0969e-03  2.6810e-03  0:06:26 1677
   324  4.8793e-03  2.4818e-03  1.2670e-02  6.2593e-01  4.8695e-03  8.0674e-03  2.6815e-03  0:05:08 1676
   325  4.8612e-03  2.4935e-03  1.2621e-02  6.2628e-01  4.8518e-03  8.0378e-03  2.6808e-03  0:04:07 1675
   326  4.8064e-03  2.4974e-03  1.2567e-02  6.2641e-01  4.7972e-03  8.0213e-03  2.6753e-03  0:03:17 1674
   327  4.7100e-03  2.4907e-03  1.2508e-02  6.2556e-01  4.7010e-03  8.0001e-03  2.6716e-03  0:02:38 1673
   328  4.6233e-03  2.4876e-03  1.2446e-02  6.2465e-01  4.6142e-03  7.9960e-03  2.6689e-03  0:02:06 1672
   329  4.6044e-03  2.4951e-03  1.2385e-02  6.2218e-01  4.5953e-03  7.9944e-03  2.6688e-03  0:01:41 1671
   330  4.6604e-03  2.5112e-03  1.2328e-02  6.1890e-01  4.6512e-03  7.9984e-03  2.6697e-03  0:01:21 1670

  iter  continuity  x-velocity  y-velocity  z-velocity      energy           k       omega     time/iter
   331  4.7958e-03  2.5298e-03  1.2275e-02  6.1481e-01  4.7866e-03  7.9954e-03  2.6731e-03  0:01:04 1669
   332  4.9819e-03  2.5450e-03  1.2213e-02  6.1065e-01  4.9728e-03  8.0073e-03  2.6800e-03  0:00:52 1668
   333  5.1842e-03  2.5534e-03  1.2138e-02  6.0651e-01  5.1751e-03  8.0096e-03  2.6863e-03  0:06:15 1667
   334  5.3491e-03  2.5692e-03  1.2067e-02  6.0199e-01  5.3398e-03  8.0192e-03  2.6945e-03  0:04:59 1666
   335  5.4631e-03  2.5893e-03  1.1992e-02  5.9640e-01  5.4536e-03  8.0369e-03  2.7086e-03  0:03:59 1665
   336  5.5888e-03  2.6151e-03  1.1918e-02  5.9161e-01  5.5791e-03  8.0496e-03  2.7237e-03  0:03:11 1664
   337  5.6570e-03  2.6425e-03  1.1835e-02  5.8615e-01  5.6470e-03  8.0687e-03  2.7425e-03  0:02:33 1663
   338  5.7626e-03  2.6705e-03  1.1751e-02  5.8016e-01  5.7524e-03  8.0845e-03  2.7524e-03  0:02:02 1662
   339  5.8994e-03  2.6946e-03  1.1658e-02  5.7664e-01  5.8891e-03  8.1233e-03  2.7571e-03  0:01:38 1661
   340  6.0538e-03  2.7189e-03  1.1564e-02  5.7309e-01  6.0434e-03  8.1496e-03  2.7611e-03  0:01:18 1660
   341  6.2065e-03  2.7423e-03  1.1465e-02  5.7166e-01  6.1960e-03  8.1704e-03  2.7718e-03  0:01:03 1659

  iter  continuity  x-velocity  y-velocity  z-velocity      energy           k       omega     time/iter
   342  6.3323e-03  2.7648e-03  1.1365e-02  5.7196e-01  6.3217e-03  8.1976e-03  2.7808e-03  0:06:22 1658
   343  6.4537e-03  2.7819e-03  1.1256e-02  5.7120e-01  6.4429e-03  8.2156e-03  2.7955e-03  0:05:05 1657
   344  6.5654e-03  2.7989e-03  1.1150e-02  5.7004e-01  6.5545e-03  8.2485e-03  2.8102e-03  0:04:04 1656
   345  6.6707e-03  2.8196e-03  1.1036e-02  5.6893e-01  6.6596e-03  8.2746e-03  2.8295e-03  0:03:15 1655
   346  6.7330e-03  2.8448e-03  1.0920e-02  5.6690e-01  6.7217e-03  8.3059e-03  2.8379e-03  0:02:36 1654
   347  6.7385e-03  2.8709e-03  1.0803e-02  5.6697e-01  6.7272e-03  8.3529e-03  2.8524e-03  0:02:05 1653
   348  6.7509e-03  2.8943e-03  1.0690e-02  5.6686e-01  6.7395e-03  8.3868e-03  2.8641e-03  0:01:40 1652
   349  6.7487e-03  2.9260e-03  1.0574e-02  5.6667e-01  6.7372e-03  8.4307e-03  2.8716e-03  0:01:20 1651
   350  6.7188e-03  2.9620e-03  1.0455e-02  5.6431e-01  6.7073e-03  8.4860e-03  2.8882e-03  0:01:04 1650
   351  6.7000e-03  3.0009e-03  1.0343e-02  5.6220e-01  6.6885e-03  8.5322e-03  2.9099e-03  0:06:21 1649
   352  6.6777e-03  3.0395e-03  1.0231e-02  5.5974e-01  6.6662e-03  8.5980e-03  2.9335e-03  0:05:04 1648

  iter  continuity  x-velocity  y-velocity  z-velocity      energy           k       omega     time/iter
   353  6.6499e-03  3.0784e-03  1.0118e-02  5.5816e-01  6.6384e-03  8.6671e-03  2.9589e-03  0:04:03 1647
   354  6.6234e-03  3.1144e-03  1.0007e-02  5.5719e-01  6.6119e-03  8.7518e-03  2.9871e-03  0:03:15 1646
   355  6.6077e-03  3.1446e-03  9.8971e-03  5.5697e-01  6.5963e-03  8.8384e-03  3.0195e-03  0:02:36 1645
   356  6.5853e-03  3.1716e-03  9.7878e-03  5.5698e-01  6.5738e-03  8.9218e-03  3.0550e-03  0:02:04 1644
   357  6.5450e-03  3.2007e-03  9.6784e-03  5.5717e-01  6.5336e-03  9.0015e-03  3.0978e-03  0:01:39 1643
   358  6.5037e-03  3.2310e-03  9.5716e-03  5.5816e-01  6.4923e-03  9.0821e-03  3.1337e-03  0:01:20 1642
   359  6.4640e-03  3.2629e-03  9.4639e-03  5.6074e-01  6.4526e-03  9.1706e-03  3.1704e-03  0:01:04 1641
   360  6.3999e-03  3.2940e-03  9.3590e-03  5.6174e-01  6.3886e-03  9.2923e-03  3.1980e-03  0:06:19 1640
   361  6.3512e-03  3.3205e-03  9.2575e-03  5.6581e-01  6.3399e-03  9.4274e-03  3.2212e-03  0:05:03 1639
   362  6.2847e-03  3.3430e-03  9.1485e-03  5.6829e-01  6.2735e-03  9.5695e-03  3.2497e-03  0:04:02 1638
   363  6.2184e-03  3.3611e-03  9.0419e-03  5.6977e-01  6.2072e-03  9.6925e-03  3.2803e-03  0:03:14 1637

  iter  continuity  x-velocity  y-velocity  z-velocity      energy           k       omega     time/iter
   364  6.1689e-03  3.3755e-03  8.9440e-03  5.7184e-01  6.1577e-03  9.7974e-03  3.3111e-03  0:02:35 1636
   365  6.1377e-03  3.3930e-03  8.8471e-03  5.7045e-01  6.1263e-03  9.8992e-03  3.3518e-03  0:02:04 1635
   366  6.1109e-03  3.4113e-03  8.7527e-03  5.7034e-01  6.0994e-03  1.0010e-02  3.3852e-03  0:01:39 1634
   367  6.1220e-03  3.4254e-03  8.6657e-03  5.7230e-01  6.1104e-03  1.0109e-02  3.4166e-03  0:01:19 1633
   368  6.1624e-03  3.4309e-03  8.5927e-03  5.7264e-01  6.1507e-03  1.0245e-02  3.4577e-03  0:01:03 1632
   369  6.1995e-03  3.4287e-03  8.5332e-03  5.7321e-01  6.1877e-03  1.0384e-02  3.4890e-03  0:00:51 1631
   370  6.9620e-03  4.0169e-03  8.8537e-03  5.7468e-01  6.9507e-03  1.0541e-02  3.5252e-03  0:06:06 1630
   371  6.2637e-03  3.4925e-03  8.5261e-03  5.7814e-01  6.2510e-03  1.0686e-02  3.5598e-03  0:04:53 1629
   372  6.1646e-03  3.4254e-03  8.4315e-03  5.8675e-01  6.1524e-03  1.0833e-02  3.5866e-03  0:03:54 1628
   373  6.1324e-03  3.4072e-03  8.3703e-03  5.9736e-01  6.1207e-03  1.0955e-02  3.6120e-03  0:03:07 1627
   374  6.0953e-03  3.3989e-03  8.3226e-03  6.0314e-01  6.0839e-03  1.1016e-02  3.6485e-03  0:02:30 1626

  iter  continuity  x-velocity  y-velocity  z-velocity      energy           k       omega     time/iter
   375  6.0639e-03  3.3871e-03  8.2856e-03  6.0461e-01  6.0527e-03  1.1099e-02  3.6727e-03  0:02:00 1625
   376  6.0452e-03  3.3755e-03  8.2555e-03  6.0363e-01  6.0340e-03  1.1171e-02  3.7007e-03  0:01:36 1624
   377  6.0416e-03  3.3654e-03  8.2281e-03  6.0451e-01  6.0306e-03  1.1241e-02  3.7146e-03  0:01:17 1623
   378  6.0457e-03  3.3525e-03  8.2081e-03  6.0900e-01  6.0347e-03  1.1295e-02  3.7201e-03  0:01:01 1622
   379  6.0553e-03  3.3407e-03  8.1935e-03  6.1593e-01  6.0442e-03  1.1396e-02  3.7384e-03  0:00:49 1621
   380  6.0584e-03  3.3300e-03  8.1872e-03  6.2111e-01  6.0474e-03  1.1454e-02  3.7538e-03  0:06:03 1620
   381  6.0541e-03  3.3182e-03  8.2061e-03  6.2222e-01  6.0430e-03  1.1437e-02  3.7757e-03  0:04:50 1619
   382  6.0122e-03  3.2980e-03  8.2538e-03  6.2222e-01  6.0011e-03  1.1529e-02  3.8035e-03  0:03:52 1618
   383  5.9697e-03  3.2749e-03  8.3234e-03  6.2497e-01  5.9588e-03  1.1626e-02  3.8154e-03  0:03:06 1617
   384  5.9307e-03  3.2514e-03  8.4098e-03  6.3025e-01  5.9200e-03  1.1626e-02  3.8342e-03  0:02:28 1616
   385  5.9005e-03  3.2322e-03  8.5029e-03  6.3588e-01  5.8900e-03  1.1689e-02  3.8535e-03  0:01:59 1615

  iter  continuity  x-velocity  y-velocity  z-velocity      energy           k       omega     time/iter
   386  5.8759e-03  3.2160e-03  8.5977e-03  6.4186e-01  5.8655e-03  1.1767e-02  3.8717e-03  0:01:35 1614
   387  5.8261e-03  3.2014e-03  8.6870e-03  6.4715e-01  5.8158e-03  1.1842e-02  3.8952e-03  0:01:16 1613
   388  5.7778e-03  3.1866e-03  8.7695e-03  6.5132e-01  5.7676e-03  1.1962e-02  3.9089e-03  0:01:01 1612
   389  5.7529e-03  3.1707e-03  8.8497e-03  6.5505e-01  5.7427e-03  1.2086e-02  3.9306e-03  0:06:11 1611
   390  5.6687e-03  3.1555e-03  8.9255e-03  6.5860e-01  5.6586e-03  1.2110e-02  3.9345e-03  0:04:56 1610
   391  5.5914e-03  3.1424e-03  9.0084e-03  6.6140e-01  5.5813e-03  1.2193e-02  3.9375e-03  0:03:57 1609
   392  5.5189e-03  3.1315e-03  9.0969e-03  6.6317e-01  5.5089e-03  1.2320e-02  3.9440e-03  0:03:09 1608
   393  5.4563e-03  3.1231e-03  9.1968e-03  6.6676e-01  5.4462e-03  1.2477e-02  3.9581e-03  0:02:31 1607
   394  5.3748e-03  3.1148e-03  9.3086e-03  6.7073e-01  5.3645e-03  1.2505e-02  3.9646e-03  0:02:01 1606
   395  5.2733e-03  3.0956e-03  9.4334e-03  6.7351e-01  5.2628e-03  1.2638e-02  3.9652e-03  0:01:37 1605
   396  5.1571e-03  3.0802e-03  9.5661e-03  6.8041e-01  5.1465e-03  1.2559e-02  3.9634e-03  0:01:17 1604

  iter  continuity  x-velocity  y-velocity  z-velocity      energy           k       omega     time/iter
   397  5.0247e-03  3.0704e-03  9.7017e-03  6.8695e-01  5.0142e-03  1.2537e-02  3.9390e-03  0:01:02 1603
   398  4.8898e-03  3.0568e-03  9.8316e-03  6.9320e-01  4.8794e-03  1.2546e-02  3.9566e-03  0:00:49 1602
   399  4.7775e-03  3.0403e-03  9.9522e-03  6.9996e-01  4.7672e-03  1.2582e-02  3.9530e-03  0:06:00 1601
   400  4.6732e-03  3.0204e-03  1.0061e-02  7.0713e-01  4.6630e-03  1.2583e-02  3.9457e-03  0:04:48 1600
   401  4.5569e-03  2.9966e-03  1.0156e-02  7.1044e-01  4.5468e-03  1.2557e-02  3.9383e-03  0:03:50 1599
   402  4.4136e-03  2.9745e-03  1.0241e-02  7.1285e-01  4.4035e-03  1.2478e-02  3.9369e-03  0:03:04 1598
   403  4.2455e-03  2.9500e-03  1.0322e-02  7.1502e-01  4.2353e-03  1.2458e-02  3.9292e-03  0:02:27 1597
   404  4.1052e-03  2.9272e-03  1.0403e-02  7.1680e-01  4.0950e-03  1.2442e-02  3.9265e-03  0:01:58 1596
   405  3.9640e-03  2.9053e-03  1.0486e-02  7.1989e-01  3.9538e-03  1.2386e-02  3.9272e-03  0:01:34 1595
   406  3.8511e-03  2.8859e-03  1.0569e-02  7.2393e-01  3.8405e-03  1.2361e-02  3.9183e-03  0:01:15 1594
   407  3.7790e-03  2.8665e-03  1.0659e-02  7.2701e-01  3.7682e-03  1.2284e-02  3.9130e-03  0:01:00 1593

  iter  continuity  x-velocity  y-velocity  z-velocity      energy           k       omega     time/iter
   408  3.7286e-03  2.8412e-03  1.0749e-02  7.2954e-01  3.7175e-03  1.2184e-02  3.9018e-03  0:00:48 1592
   409  3.6794e-03  2.8151e-03  1.0835e-02  7.3142e-01  3.6683e-03  1.2049e-02  3.9123e-03  0:05:57 1591
   410  3.6079e-03  2.7900e-03  1.0910e-02  7.3314e-01  3.5970e-03  1.1962e-02  3.9062e-03  0:04:45 1590
   411  3.5695e-03  2.7657e-03  1.0972e-02  7.3271e-01  3.5588e-03  1.1958e-02  3.9070e-03  0:03:48 1589
   412  3.5131e-03  2.7396e-03  1.1018e-02  7.2958e-01  3.5027e-03  1.1967e-02  3.9040e-03  0:03:02 1588
   413  3.4706e-03  2.7116e-03  1.1056e-02  7.2567e-01  3.4604e-03  1.1907e-02  3.8932e-03  0:02:26 1587
   414  3.4511e-03  2.6842e-03  1.1087e-02  7.2401e-01  3.4411e-03  1.1802e-02  3.8791e-03  0:01:56 1586
   415  3.4424e-03  2.6578e-03  1.1115e-02  7.2151e-01  3.4326e-03  1.1727e-02  3.8798e-03  0:01:33 1585
   416  3.4432e-03  2.6360e-03  1.1138e-02  7.1737e-01  3.4335e-03  1.1612e-02  3.8632e-03  0:01:14 1584
   417  3.4384e-03  2.6186e-03  1.1158e-02  7.1365e-01  3.4289e-03  1.1423e-02  3.8572e-03  0:01:00 1583
   418  3.4794e-03  2.6101e-03  1.1179e-02  7.1027e-01  3.4701e-03  1.1335e-02  3.8588e-03  0:06:04 1582

  iter  continuity  x-velocity  y-velocity  z-velocity      energy           k       omega     time/iter
   419  3.5233e-03  2.6098e-03  1.1199e-02  7.0594e-01  3.5141e-03  1.1311e-02  3.8622e-03  0:04:51 1581
   420  3.5921e-03  2.6139e-03  1.1220e-02  7.0144e-01  3.5830e-03  1.1297e-02  3.8583e-03  0:03:53 1580
   421  3.6834e-03  2.6193e-03  1.1240e-02  6.9799e-01  3.6744e-03  1.1243e-02  3.8573e-03  0:03:06 1579
   422  3.7900e-03  2.6220e-03  1.1256e-02  6.9340e-01  3.7812e-03  1.1152e-02  3.8406e-03  0:02:29 1578
   423  3.9093e-03  2.6265e-03  1.1271e-02  6.8894e-01  3.9008e-03  1.1013e-02  3.8189e-03  0:01:59 1577
   424  4.0346e-03  2.6315e-03  1.1282e-02  6.8948e-01  4.0265e-03  1.0931e-02  3.7996e-03  0:01:35 1576
   425  4.1773e-03  2.6419e-03  1.1292e-02  6.9327e-01  4.1696e-03  1.0781e-02  3.7681e-03  0:01:16 1575
   426  4.3180e-03  2.6541e-03  1.1300e-02  6.9618e-01  4.3105e-03  1.0634e-02  3.7346e-03  0:01:01 1574
   427  4.4653e-03  2.6672e-03  1.1305e-02  6.9985e-01  4.4581e-03  1.0548e-02  3.7207e-03  0:00:49 1573
   428  4.6205e-03  2.6797e-03  1.1307e-02  7.0658e-01  4.6134e-03  1.0497e-02  3.7169e-03  0:05:53 1572
   429  4.7714e-03  2.6908e-03  1.1311e-02  7.1119e-01  4.7645e-03  1.0440e-02  3.7090e-03  0:04:42 1571

  iter  continuity  x-velocity  y-velocity  z-velocity      energy           k       omega     time/iter
   430  4.9261e-03  2.7036e-03  1.1319e-02  7.1534e-01  4.9192e-03  1.0384e-02  3.6957e-03  0:03:46 1570
   431  5.0805e-03  2.7191e-03  1.1329e-02  7.2286e-01  5.0737e-03  1.0307e-02  3.6705e-03  0:03:01 1569
   432  5.2491e-03  2.7327e-03  1.1337e-02  7.3267e-01  5.2423e-03  1.0201e-02  3.6468e-03  0:02:24 1568
   433  5.4209e-03  2.7476e-03  1.1347e-02  7.4754e-01  5.4142e-03  1.0068e-02  3.6210e-03  0:01:55 1567
   434  6.0208e-03  3.1433e-03  1.1490e-02  7.6093e-01  6.0158e-03  9.9642e-03  3.5800e-03  0:01:32 1566
   435  5.8187e-03  2.7870e-03  1.1368e-02  7.7230e-01  5.8124e-03  9.8343e-03  3.5579e-03  0:01:14 1565
   436  5.9494e-03  2.7237e-03  1.1341e-02  7.8600e-01  5.9430e-03  9.6967e-03  3.5290e-03  0:00:59 1564
   437  6.1277e-03  2.7313e-03  1.1341e-02  8.0049e-01  6.1212e-03  9.5869e-03  3.5043e-03  0:00:47 1563
   438  6.3053e-03  2.7598e-03  1.1350e-02  8.1769e-01  6.2987e-03  9.4901e-03  3.4855e-03  0:05:50 1562
   439  6.4829e-03  2.7853e-03  1.1357e-02  8.3430e-01  6.4761e-03  9.4093e-03  3.4634e-03  0:04:40 1561
   440  6.6663e-03  2.8062e-03  1.1363e-02  8.5305e-01  6.6594e-03  9.3319e-03  3.4371e-03  0:03:44 1560

  iter  continuity  x-velocity  y-velocity  z-velocity      energy           k       omega     time/iter
   441  6.8480e-03  2.8235e-03  1.1368e-02  8.7123e-01  6.8410e-03  9.2572e-03  3.4094e-03  0:02:59 1559
   442  7.0336e-03  2.8389e-03  1.1375e-02  8.8654e-01  7.0265e-03  9.1634e-03  3.3794e-03  0:02:23 1558
   443  7.2269e-03  2.8522e-03  1.1386e-02  9.0440e-01  7.2196e-03  9.0363e-03  3.3435e-03  0:01:54 1557
   444  7.4345e-03  2.8642e-03  1.1396e-02  9.1998e-01  7.4271e-03  8.9064e-03  3.3118e-03  0:01:31 1556
   445  7.6552e-03  2.8757e-03  1.1408e-02  9.3627e-01  7.6476e-03  8.7939e-03  3.2780e-03  0:06:24 1555
   446  7.8705e-03  2.8898e-03  1.1422e-02  9.4788e-01  7.8626e-03  8.6811e-03  3.2572e-03  0:05:07 1554
   447  8.0733e-03  2.9015e-03  1.1436e-02  9.6006e-01  8.0652e-03  8.5822e-03  3.2403e-03  0:04:06 1553
   448  8.2730e-03  2.9117e-03  1.1447e-02  9.6784e-01  8.2648e-03  8.5012e-03  3.2239e-03  0:03:16 1552
   449  8.4969e-03  2.9218e-03  1.1459e-02  9.7547e-01  8.4884e-03  8.4225e-03  3.2005e-03  0:02:37 1551
   450  8.7206e-03  2.9319e-03  1.1472e-02  9.7776e-01  8.7119e-03  8.3549e-03  3.1772e-03  0:02:05 1550
   451  8.9264e-03  2.9430e-03  1.1482e-02  9.8005e-01  8.9174e-03  8.2885e-03  3.1524e-03  0:01:40 1549

  iter  continuity  x-velocity  y-velocity  z-velocity      energy           k       omega     time/iter
   452  9.1333e-03  2.9546e-03  1.1492e-02  9.7987e-01  9.1241e-03  8.2153e-03  3.1260e-03  0:01:20 1548
   453  9.3474e-03  2.9660e-03  1.1499e-02  9.7888e-01  9.3379e-03  8.1365e-03  3.0958e-03  0:01:04 1547
   454  9.5793e-03  2.9767e-03  1.1505e-02  9.7383e-01  9.5695e-03  8.0538e-03  3.0647e-03  0:00:51 1546
   455  9.7764e-03  2.9815e-03  1.1509e-02  9.6628e-01  9.7663e-03  7.9763e-03  3.0403e-03  0:05:50 1545
   456  9.9124e-03  2.9852e-03  1.1514e-02  9.5816e-01  9.9021e-03  7.9179e-03  3.0238e-03  0:04:40 1544
   457  1.0058e-02  2.9914e-03  1.1522e-02  9.4798e-01  1.0047e-02  7.8710e-03  3.0047e-03  0:03:44 1543
   458  1.0198e-02  2.9982e-03  1.1533e-02  9.3644e-01  1.0188e-02  7.8315e-03  2.9873e-03  0:02:59 1542
   459  1.0278e-02  3.0057e-03  1.1545e-02  9.2172e-01  1.0267e-02  7.8033e-03  2.9732e-03  0:02:23 1541
   460  1.0372e-02  3.0082e-03  1.1557e-02  9.0652e-01  1.0360e-02  7.7823e-03  2.9653e-03  0:01:54 1540
   461  1.0461e-02  3.0103e-03  1.1568e-02  8.8967e-01  1.0449e-02  7.7605e-03  2.9472e-03  0:01:31 1539
   462  1.0503e-02  3.0098e-03  1.1579e-02  8.7082e-01  1.0491e-02  7.7390e-03  2.9324e-03  0:01:13 1538

  iter  continuity  x-velocity  y-velocity  z-velocity      energy           k       omega     time/iter
   463  1.0593e-02  3.0078e-03  1.1588e-02  8.5003e-01  1.0582e-02  7.7265e-03  2.9133e-03  0:00:58 1537
   464  1.0603e-02  3.0008e-03  1.1595e-02  8.2755e-01  1.0591e-02  7.7191e-03  2.8973e-03  0:05:54 1536
   465  1.0625e-02  2.9917e-03  1.1598e-02  8.0447e-01  1.0613e-02  7.7218e-03  2.8874e-03  0:04:43 1535
   466  1.0675e-02  2.9793e-03  1.1599e-02  7.8411e-01  1.0663e-02  7.7291e-03  2.8736e-03  0:03:46 1534
   467  1.0642e-02  2.9626e-03  1.1599e-02  7.6336e-01  1.0630e-02  7.7365e-03  2.8625e-03  0:03:01 1533
   468  1.0621e-02  2.9388e-03  1.1595e-02  7.4393e-01  1.0609e-02  7.7381e-03  2.8565e-03  0:02:25 1532
   469  1.0611e-02  2.9122e-03  1.1593e-02  7.2529e-01  1.0599e-02  7.7390e-03  2.8560e-03  0:01:56 1531
   470  1.0531e-02  2.8840e-03  1.1591e-02  7.0800e-01  1.0518e-02  7.7454e-03  2.8550e-03  0:01:32 1530
   471  1.0451e-02  2.8513e-03  1.1587e-02  6.9310e-01  1.0439e-02  7.7573e-03  2.8540e-03  0:01:14 1529
   472  1.0372e-02  2.8193e-03  1.1580e-02  6.8075e-01  1.0360e-02  7.7691e-03  2.8479e-03  0:00:59 1528
   473  1.0197e-02  2.7802e-03  1.1568e-02  6.7244e-01  1.0185e-02  7.7800e-03  2.8425e-03  0:00:47 1527

  iter  continuity  x-velocity  y-velocity  z-velocity      energy           k       omega     time/iter
   474  1.0033e-02  2.7393e-03  1.1556e-02  6.6723e-01  1.0021e-02  7.7965e-03  2.8396e-03  0:05:43 1526
   475  9.8972e-03  2.6983e-03  1.1540e-02  6.6515e-01  9.8851e-03  7.8130e-03  2.8374e-03  0:04:34 1525
   476  9.6773e-03  2.6564e-03  1.1518e-02  6.6659e-01  9.6654e-03  7.8274e-03  2.8407e-03  0:03:39 1524
   477  9.4410e-03  2.6121e-03  1.1494e-02  6.7016e-01  9.4293e-03  7.8499e-03  2.8430e-03  0:02:55 1523
   478  9.2038e-03  2.5678e-03  1.1468e-02  6.7677e-01  9.1922e-03  7.8680e-03  2.8491e-03  0:02:20 1522
   479  8.9687e-03  2.5249e-03  1.1443e-02  6.8688e-01  8.9572e-03  7.8881e-03  2.8539e-03  0:01:52 1521
   480  8.7345e-03  2.4907e-03  1.1419e-02  6.9928e-01  8.7232e-03  7.9034e-03  2.8582e-03  0:01:30 1520
   481  8.5039e-03  2.4597e-03  1.1390e-02  7.1169e-01  8.4927e-03  7.8987e-03  2.8616e-03  0:01:12 1519
   482  8.2809e-03  2.4264e-03  1.1357e-02  7.2613e-01  8.2699e-03  7.8942e-03  2.8634e-03  0:00:57 1518
   483  8.0765e-03  2.3949e-03  1.1324e-02  7.4127e-01  8.0657e-03  7.8999e-03  2.8646e-03  0:00:46 1517
   484  7.8595e-03  2.3736e-03  1.1288e-02  7.5706e-01  7.8488e-03  7.9059e-03  2.8630e-03  0:05:40 1516

  iter  continuity  x-velocity  y-velocity  z-velocity      energy           k       omega     time/iter
   485  7.6396e-03  2.3683e-03  1.1250e-02  7.7342e-01  7.6291e-03  7.9166e-03  2.8594e-03  0:04:32 1515
   486  7.4160e-03  2.3805e-03  1.1212e-02  7.8953e-01  7.4055e-03  7.9302e-03  2.8557e-03  0:03:37 1514
   487  7.1486e-03  2.3963e-03  1.1176e-02  8.0390e-01  7.1383e-03  7.9468e-03  2.8516e-03  0:02:54 1513
   488  6.8210e-03  2.4137e-03  1.1142e-02  8.1902e-01  6.8111e-03  7.9466e-03  2.8471e-03  0:02:19 1512
   489  6.4728e-03  2.4359e-03  1.1106e-02  8.2751e-01  6.4632e-03  7.9461e-03  2.8436e-03  0:01:51 1511
   490  6.1602e-03  2.4677e-03  1.1070e-02  8.3602e-01  6.1508e-03  7.9634e-03  2.8404e-03  0:01:29 1510
   491  5.9188e-03  2.5034e-03  1.1030e-02  8.4376e-01  5.9097e-03  7.9657e-03  2.8407e-03  0:01:11 1509
   492  5.6351e-03  2.5439e-03  1.0977e-02  8.4885e-01  5.6262e-03  7.9766e-03  2.8382e-03  0:00:57 1508
   493  5.4025e-03  2.5873e-03  1.0915e-02  8.5199e-01  5.3938e-03  7.9917e-03  2.8450e-03  0:05:47 1507
   494  5.2530e-03  2.6312e-03  1.0849e-02  8.5210e-01  5.2444e-03  8.0112e-03  2.8552e-03  0:04:37 1506
   495  5.2051e-03  2.6767e-03  1.0786e-02  8.4972e-01  5.1965e-03  8.0251e-03  2.8652e-03  0:03:42 1505

  iter  continuity  x-velocity  y-velocity  z-velocity      energy           k       omega     time/iter
   496  5.2562e-03  2.7242e-03  1.0716e-02  8.4974e-01  5.2476e-03  8.0431e-03  2.8802e-03  0:02:57 1504
   497  5.7998e-03  3.1154e-03  1.0881e-02  8.4681e-01  5.7932e-03  8.0722e-03  2.8942e-03  0:02:22 1503
   498  5.4158e-03  2.7822e-03  1.0626e-02  8.4447e-01  5.4079e-03  8.0819e-03  2.9036e-03  0:01:53 1502
   499  5.4284e-03  2.7635e-03  1.0472e-02  8.4123e-01  5.4201e-03  8.0970e-03  2.9067e-03  0:01:31 1501
   500  5.5266e-03  2.8126e-03  1.0350e-02  8.3745e-01  5.5180e-03  8.1058e-03  2.9106e-03  0:01:12 1500
   501  5.6759e-03  2.8686e-03  1.0241e-02  8.3367e-01  5.6670e-03  8.1271e-03  2.9196e-03  0:00:58 1499
   502  5.8254e-03  2.9195e-03  1.0126e-02  8.2943e-01  5.8161e-03  8.1477e-03  2.9389e-03  0:00:46 1498
   503  6.0431e-03  2.9578e-03  1.0010e-02  8.2458e-01  6.0335e-03  8.1690e-03  2.9573e-03  0:05:36 1497
   504  6.2972e-03  2.9817e-03  9.8988e-03  8.1933e-01  6.2872e-03  8.1914e-03  2.9770e-03  0:04:29 1496
   505  6.5479e-03  2.9944e-03  9.7842e-03  8.1404e-01  6.5377e-03  8.2103e-03  2.9901e-03  0:03:35 1495
   506  6.7780e-03  3.0069e-03  9.6662e-03  8.0817e-01  6.7676e-03  8.2296e-03  3.0022e-03  0:02:52 1494

  iter  continuity  x-velocity  y-velocity  z-velocity      energy           k       omega     time/iter
   507  7.0183e-03  3.0211e-03  9.5457e-03  8.0336e-01  7.0077e-03  8.2410e-03  3.0142e-03  0:02:17 1493
   508  7.2318e-03  3.0337e-03  9.4144e-03  7.9969e-01  7.2209e-03  8.2609e-03  3.0348e-03  0:01:50 1492
   509  7.4327e-03  3.0426e-03  9.2803e-03  7.9626e-01  7.4216e-03  8.2801e-03  3.0535e-03  0:01:28 1491
   510  7.6247e-03  3.0529e-03  9.1541e-03  7.9456e-01  7.6134e-03  8.2850e-03  3.0761e-03  0:01:10 1490
   511  7.8087e-03  3.0678e-03  9.0239e-03  7.9278e-01  7.7973e-03  8.2889e-03  3.1047e-03  0:00:56 1489
   512  7.9899e-03  3.0835e-03  8.8963e-03  7.9210e-01  7.9783e-03  8.3240e-03  3.1379e-03  0:00:45 1488
   513  8.1464e-03  3.1004e-03  8.7711e-03  7.9050e-01  8.1347e-03  8.3440e-03  3.1640e-03  0:05:33 1487
   514  8.2649e-03  3.1179e-03  8.6570e-03  7.8901e-01  8.2531e-03  8.3646e-03  3.1850e-03  0:04:26 1486
   515  8.3509e-03  3.1373e-03  8.5472e-03  7.8841e-01  8.3391e-03  8.3877e-03  3.2020e-03  0:03:33 1485
   516  8.4127e-03  3.1538e-03  8.4405e-03  7.8624e-01  8.4009e-03  8.4424e-03  3.2251e-03  0:02:50 1484
   517  8.4219e-03  3.1643e-03  8.3447e-03  7.8050e-01  8.4101e-03  8.4859e-03  3.2542e-03  0:02:16 1483

  iter  continuity  x-velocity  y-velocity  z-velocity      energy           k       omega     time/iter
   518  8.3942e-03  3.1685e-03  8.2651e-03  7.7390e-01  8.3826e-03  8.5076e-03  3.2863e-03  0:01:49 1482
   519  8.3514e-03  3.1694e-03  8.1929e-03  7.7165e-01  8.3399e-03  8.5462e-03  3.3258e-03  0:01:27 1481
   520  8.2968e-03  3.1655e-03  8.1209e-03  7.6915e-01  8.2857e-03  8.6147e-03  3.3645e-03  0:01:10 1480
   521  8.2303e-03  3.1575e-03  8.0499e-03  7.6462e-01  8.2195e-03  8.6858e-03  3.3927e-03  0:00:56 1479
   522  8.1398e-03  3.1442e-03  7.9826e-03  7.5623e-01  8.1293e-03  8.7455e-03  3.4170e-03  0:05:40 1478
   523  8.0386e-03  3.1275e-03  7.9182e-03  7.4530e-01  8.0284e-03  8.7856e-03  3.4424e-03  0:04:32 1477
   524  7.9391e-03  3.1089e-03  7.8535e-03  7.3498e-01  7.9291e-03  8.8472e-03  3.4756e-03  0:03:37 1476
   525  7.8367e-03  3.0841e-03  7.7918e-03  7.2489e-01  7.8270e-03  8.8942e-03  3.5111e-03  0:02:54 1475
   526  7.7360e-03  3.0564e-03  7.7333e-03  7.1536e-01  7.7265e-03  8.9534e-03  3.5510e-03  0:02:19 1474
   527  7.6278e-03  3.0237e-03  7.6770e-03  7.0547e-01  7.6187e-03  9.0178e-03  3.5799e-03  0:01:51 1473
   528  7.5124e-03  2.9892e-03  7.6237e-03  6.9460e-01  7.5035e-03  9.0597e-03  3.6042e-03  0:01:29 1472

  iter  continuity  x-velocity  y-velocity  z-velocity      energy           k       omega     time/iter
   529  7.3918e-03  2.9567e-03  7.5748e-03  6.8267e-01  7.3832e-03  9.1216e-03  3.6320e-03  0:01:11 1471
   530  7.2943e-03  2.9214e-03  7.5334e-03  6.6957e-01  7.2860e-03  9.1976e-03  3.6549e-03  0:00:57 1470
   531  7.2124e-03  2.8804e-03  7.5122e-03  6.5911e-01  7.2045e-03  9.2751e-03  3.6705e-03  0:00:45 1469
   532  7.1511e-03  2.8403e-03  7.5032e-03  6.4920e-01  7.1435e-03  9.3512e-03  3.6868e-03  0:05:30 1468
   533  7.1082e-03  2.8016e-03  7.5042e-03  6.3724e-01  7.1009e-03  9.4255e-03  3.6968e-03  0:04:24 1467
   534  7.0872e-03  2.7623e-03  7.5102e-03  6.2589e-01  7.0801e-03  9.4914e-03  3.7075e-03  0:03:31 1466
   535  7.0952e-03  2.7244e-03  7.5221e-03  6.1525e-01  7.0884e-03  9.5260e-03  3.7205e-03  0:02:49 1465
   536  7.1406e-03  2.6902e-03  7.5376e-03  6.0473e-01  7.1339e-03  9.5485e-03  3.7367e-03  0:02:15 1464
   537  7.1870e-03  2.6627e-03  7.5553e-03  5.9487e-01  7.1804e-03  9.5705e-03  3.7574e-03  0:01:48 1463
   538  7.2344e-03  2.6384e-03  7.5718e-03  5.8663e-01  7.2279e-03  9.6019e-03  3.7745e-03  0:01:26 1462
   539  7.2890e-03  2.6183e-03  7.5867e-03  5.7844e-01  7.2827e-03  9.6363e-03  3.7951e-03  0:01:09 1461

  iter  continuity  x-velocity  y-velocity  z-velocity      energy           k       omega     time/iter
   540  7.3354e-03  2.6025e-03  7.6025e-03  5.7069e-01  7.3290e-03  9.6833e-03  3.8108e-03  0:00:55 1460
   541  7.3276e-03  2.5911e-03  7.6170e-03  5.6358e-01  7.3212e-03  9.7161e-03  3.8253e-03  0:05:36 1459
   542  7.2562e-03  2.5868e-03  7.6342e-03  5.5772e-01  7.2499e-03  9.7434e-03  3.8259e-03  0:04:28 1458
   543  7.2069e-03  2.5931e-03  7.6528e-03  5.5418e-01  7.2005e-03  9.7804e-03  3.8273e-03  0:03:35 1457
   544  7.1162e-03  2.6071e-03  7.6741e-03  5.5038e-01  7.1098e-03  9.8051e-03  3.8140e-03  0:02:52 1456
   545  7.0073e-03  2.6206e-03  7.6997e-03  5.4739e-01  7.0008e-03  9.8378e-03  3.8046e-03  0:02:17 1455
   546  6.9034e-03  2.6431e-03  7.7314e-03  5.4474e-01  6.8968e-03  9.8364e-03  3.8049e-03  0:01:50 1454
   547  6.7831e-03  2.6652e-03  7.7677e-03  5.4226e-01  6.7764e-03  9.7999e-03  3.8095e-03  0:01:28 1453
   548  6.6234e-03  2.6895e-03  7.8064e-03  5.3999e-01  6.6166e-03  9.8127e-03  3.8267e-03  0:01:10 1452
   549  6.4598e-03  2.7198e-03  7.8475e-03  5.3884e-01  6.4530e-03  9.8328e-03  3.8270e-03  0:00:56 1451
   550  6.2783e-03  2.7541e-03  7.8862e-03  5.3775e-01  6.2716e-03  9.8549e-03  3.8331e-03  0:00:45 1450

  iter  continuity  x-velocity  y-velocity  z-velocity      energy           k       omega     time/iter
   551  6.0895e-03  2.7795e-03  7.9227e-03  5.3718e-01  6.0829e-03  9.8122e-03  3.8348e-03  0:05:26 1449
   552  5.9070e-03  2.7998e-03  7.9529e-03  5.3683e-01  5.9005e-03  9.8599e-03  3.8379e-03  0:04:20 1448
   553  5.7309e-03  2.8250e-03  7.9776e-03  5.3675e-01  5.7245e-03  9.9327e-03  3.8521e-03  0:03:28 1447
   554  5.5304e-03  2.8440e-03  7.9985e-03  5.3662e-01  5.5241e-03  9.9679e-03  3.8489e-03  0:02:46 1446
   555  5.3172e-03  2.8586e-03  8.0142e-03  5.3664e-01  5.3110e-03  1.0079e-02  3.8340e-03  0:02:13 1445
   556  5.1112e-03  2.8750e-03  8.0222e-03  5.3637e-01  5.1049e-03  1.0076e-02  3.8268e-03  0:01:46 1444
   557  4.9218e-03  2.8887e-03  8.0256e-03  5.3507e-01  4.9156e-03  1.0158e-02  3.8238e-03  0:01:25 1443
   558  4.7627e-03  2.8976e-03  8.0270e-03  5.3319e-01  4.7564e-03  1.0257e-02  3.8235e-03  0:01:08 1442
   559  4.6134e-03  2.9003e-03  8.0239e-03  5.3046e-01  4.6071e-03  1.0325e-02  3.8199e-03  0:00:54 1441
   560  4.4814e-03  2.8927e-03  8.0164e-03  5.2718e-01  4.4750e-03  1.0409e-02  3.8299e-03  0:00:43 1440
   561  4.3348e-03  2.8746e-03  8.0063e-03  5.2320e-01  4.3285e-03  1.0445e-02  3.8371e-03  0:05:23 1439

  iter  continuity  x-velocity  y-velocity  z-velocity      energy           k       omega     time/iter
   562  4.2150e-03  2.8528e-03  7.9936e-03  5.1732e-01  4.2087e-03  1.0419e-02  3.8341e-03  0:04:18 1438
   563  4.0811e-03  2.8253e-03  7.9751e-03  5.1158e-01  4.0747e-03  1.0473e-02  3.8310e-03  0:03:26 1437
   564  3.9793e-03  2.7929e-03  7.9509e-03  5.0740e-01  3.9729e-03  1.0558e-02  3.8262e-03  0:02:45 1436
   565  3.8984e-03  2.7548e-03  7.9236e-03  5.0599e-01  3.8920e-03  1.0624e-02  3.8302e-03  0:02:12 1435
   566  3.8499e-03  2.7121e-03  7.8925e-03  5.0573e-01  3.8436e-03  1.0663e-02  3.8323e-03  0:01:45 1434
   567  3.8441e-03  2.6674e-03  7.8579e-03  5.0731e-01  3.8379e-03  1.0724e-02  3.8149e-03  0:01:24 1433
   568  3.8489e-03  2.6243e-03  7.8195e-03  5.0909e-01  3.8429e-03  1.0665e-02  3.8083e-03  0:01:07 1432
   569  3.8727e-03  2.5869e-03  7.7777e-03  5.1015e-01  3.8670e-03  1.0671e-02  3.8073e-03  0:00:54 1431
   570  3.9457e-03  2.5506e-03  7.7334e-03  5.1084e-01  3.9402e-03  1.0717e-02  3.7943e-03  0:05:29 1430
   571  4.1099e-03  2.5125e-03  7.6881e-03  5.1064e-01  4.1047e-03  1.0737e-02  3.7873e-03  0:04:23 1429
   572  4.3296e-03  2.4722e-03  7.6465e-03  5.0938e-01  4.3247e-03  1.0750e-02  3.7856e-03  0:03:30 1428

  iter  continuity  x-velocity  y-velocity  z-velocity      energy           k       omega     time/iter
   573  4.5852e-03  2.4285e-03  7.6092e-03  5.0826e-01  4.5805e-03  1.0751e-02  3.7875e-03  0:02:48 1427
   574  4.8793e-03  2.3822e-03  7.5751e-03  5.0811e-01  4.8749e-03  1.0747e-02  3.7738e-03  0:02:14 1426
   575  5.1918e-03  2.3331e-03  7.5448e-03  5.0893e-01  5.1876e-03  1.0670e-02  3.7564e-03  0:01:47 1425
   576  5.5133e-03  2.2814e-03  7.5168e-03  5.0944e-01  5.5092e-03  1.0624e-02  3.7406e-03  0:01:26 1424
   577  5.8066e-03  2.2328e-03  7.4953e-03  5.1105e-01  5.8027e-03  1.0665e-02  3.7320e-03  0:01:09 1423
   578  6.0761e-03  2.1840e-03  7.4807e-03  5.1421e-01  6.0723e-03  1.0708e-02  3.7262e-03  0:00:55 1422
   579  6.3238e-03  2.1363e-03  7.4745e-03  5.1863e-01  6.3200e-03  1.0714e-02  3.7168e-03  0:00:44 1421
   580  6.5520e-03  2.0916e-03  7.4757e-03  5.2385e-01  6.5483e-03  1.0674e-02  3.7073e-03  0:05:19 1420
   581  6.7469e-03  2.0518e-03  7.4844e-03  5.2873e-01  6.7433e-03  1.0596e-02  3.6940e-03  0:04:15 1419
   582  6.9288e-03  2.0203e-03  7.4989e-03  5.3308e-01  6.9251e-03  1.0547e-02  3.6766e-03  0:03:24 1418
   583  7.5305e-03  2.4137e-03  7.6625e-03  5.3737e-01  7.5268e-03  1.0451e-02  3.6623e-03  0:02:43 1417

  iter  continuity  x-velocity  y-velocity  z-velocity      energy           k       omega     time/iter
   584  7.3733e-03  2.1102e-03  7.5784e-03  5.4070e-01  7.3694e-03  1.0369e-02  3.6525e-03  0:02:10 1416
   585  7.4065e-03  2.0101e-03  7.5823e-03  5.4459e-01  7.4029e-03  1.0340e-02  3.6417e-03  0:01:44 1415
   586  7.4391e-03  1.9670e-03  7.6119e-03  5.4777e-01  7.4356e-03  1.0361e-02  3.6332e-03  0:01:23 1414
   587  7.7495e-03  2.2411e-03  7.7878e-03  5.5242e-01  7.7468e-03  1.0369e-02  3.6060e-03  0:01:07 1413
   588  7.4672e-03  1.9826e-03  7.7344e-03  5.5671e-01  7.4637e-03  1.0333e-02  3.5730e-03  0:00:53 1412
   589  7.7612e-03  2.1864e-03  7.8497e-03  5.6169e-01  7.7579e-03  1.0266e-02  3.5368e-03  0:00:43 1411
   590  7.5283e-03  1.9730e-03  7.8400e-03  5.6655e-01  7.5245e-03  1.0168e-02  3.5169e-03  0:05:16 1410
   591  7.4423e-03  1.9178e-03  7.8948e-03  5.7220e-01  7.4385e-03  1.0125e-02  3.4929e-03  0:04:13 1409
   592  7.3876e-03  1.8933e-03  7.9628e-03  5.8007e-01  7.3837e-03  1.0001e-02  3.4668e-03  0:03:22 1408
   593  7.3460e-03  1.8785e-03  8.0343e-03  5.8793e-01  7.3420e-03  9.9051e-03  3.4543e-03  0:02:41 1407
   594  7.2918e-03  1.8708e-03  8.1036e-03  5.9575e-01  7.2876e-03  9.8520e-03  3.4390e-03  0:02:09 1406

  iter  continuity  x-velocity  y-velocity  z-velocity      energy           k       omega     time/iter
   595  7.2289e-03  1.8682e-03  8.1696e-03  6.0229e-01  7.2246e-03  9.8239e-03  3.4324e-03  0:01:43 1405
   596  7.1641e-03  1.8691e-03  8.2351e-03  6.0946e-01  7.1596e-03  9.7974e-03  3.4103e-03  0:01:22 1404
   597  7.0779e-03  1.8728e-03  8.2981e-03  6.1670e-01  7.0733e-03  9.7666e-03  3.3908e-03  0:01:06 1403
   598  6.9748e-03  1.8785e-03  8.3606e-03  6.2451e-01  6.9700e-03  9.7043e-03  3.3649e-03  0:00:53 1402
   599  6.8725e-03  1.8842e-03  8.4228e-03  6.3264e-01  6.8675e-03  9.5956e-03  3.3369e-03  0:05:22 1401
   600  6.7783e-03  1.8893e-03  8.4840e-03  6.4154e-01  6.7732e-03  9.5283e-03  3.3005e-03  0:04:18 1400
   601  6.6942e-03  1.8936e-03  8.5429e-03  6.5031e-01  6.6889e-03  9.4471e-03  3.2674e-03  0:03:26 1399
   602  6.6089e-03  1.8979e-03  8.6002e-03  6.5971e-01  6.6034e-03  9.3484e-03  3.2366e-03  0:02:45 1398
   603  6.5259e-03  1.9013e-03  8.6543e-03  6.6872e-01  6.5202e-03  9.2932e-03  3.2142e-03  0:02:12 1397
   604  6.4419e-03  1.9050e-03  8.7024e-03  6.7820e-01  6.4361e-03  9.2483e-03  3.1965e-03  0:01:45 1396
   605  6.3363e-03  1.9079e-03  8.7446e-03  6.8800e-01  6.3304e-03  9.1980e-03  3.1820e-03  0:01:24 1395

  iter  continuity  x-velocity  y-velocity  z-velocity      energy           k       omega     time/iter
   606  6.2106e-03  1.9120e-03  8.7826e-03  6.9740e-01  6.2045e-03  9.1495e-03  3.1683e-03  0:01:07 1394
   607  6.0770e-03  1.9166e-03  8.8149e-03  7.0567e-01  6.0709e-03  9.0962e-03  3.1508e-03  0:00:54 1393
   608  5.9424e-03  1.9204e-03  8.8427e-03  7.1263e-01  5.9362e-03  9.0347e-03  3.1256e-03  0:00:43 1392
   609  5.8143e-03  1.9236e-03  8.8642e-03  7.1886e-01  5.8081e-03  8.9382e-03  3.1005e-03  0:05:13 1391
   610  5.6937e-03  1.9266e-03  8.8787e-03  7.2421e-01  5.6875e-03  8.8547e-03  3.0744e-03  0:04:10 1390
   611  5.5818e-03  1.9276e-03  8.8835e-03  7.2771e-01  5.5755e-03  8.7954e-03  3.0500e-03  0:03:20 1389
   612  5.4615e-03  1.9264e-03  8.8849e-03  7.2881e-01  5.4552e-03  8.7421e-03  3.0253e-03  0:02:40 1388
   613  5.3336e-03  1.9225e-03  8.8838e-03  7.2783e-01  5.3275e-03  8.6980e-03  3.0052e-03  0:02:08 1387
   614  5.1973e-03  1.9148e-03  8.8802e-03  7.2512e-01  5.1912e-03  8.6593e-03  2.9929e-03  0:01:42 1386
   615  5.0614e-03  1.9124e-03  8.8742e-03  7.2048e-01  5.0553e-03  8.6190e-03  2.9812e-03  0:01:22 1385
   616  4.9236e-03  1.9114e-03  8.8635e-03  7.1431e-01  4.9176e-03  8.5816e-03  2.9732e-03  0:01:05 1384

  iter  continuity  x-velocity  y-velocity  z-velocity      energy           k       omega     time/iter
   617  4.7849e-03  1.9102e-03  8.8502e-03  7.0710e-01  4.7789e-03  8.5464e-03  2.9628e-03  0:00:52 1383
   618  4.6577e-03  1.9119e-03  8.8319e-03  6.9811e-01  4.6518e-03  8.5057e-03  2.9587e-03  0:05:18 1382
   619  4.5502e-03  1.9142e-03  8.8096e-03  6.8696e-01  4.5444e-03  8.4617e-03  2.9473e-03  0:04:14 1381
   620  4.4648e-03  1.9142e-03  8.7816e-03  6.7367e-01  4.4591e-03  8.4216e-03  2.9399e-03  0:03:23 1380
   621  4.4042e-03  1.9160e-03  8.7508e-03  6.5898e-01  4.3984e-03  8.3846e-03  2.9367e-03  0:02:43 1379
   622  5.1410e-03  2.3491e-03  8.8933e-03  6.4374e-01  5.1371e-03  8.3600e-03  2.9252e-03  0:02:10 1378
   623  4.6347e-03  1.9652e-03  8.7106e-03  6.2801e-01  4.6295e-03  8.3488e-03  2.9234e-03  0:01:44 1377
   624  4.5995e-03  1.8950e-03  8.6420e-03  6.1145e-01  4.5943e-03  8.3376e-03  2.9211e-03  0:01:23 1376
   625  5.4199e-03  2.4008e-03  8.7453e-03  5.9414e-01  5.4155e-03  8.3159e-03  2.9226e-03  0:01:06 1375
   626  4.7803e-03  2.1174e-03  8.6033e-03  5.7607e-01  4.7744e-03  8.2882e-03  2.9174e-03  0:00:53 1374
   627  5.0956e-03  2.3203e-03  8.6770e-03  5.5742e-01  5.0916e-03  8.2561e-03  2.9085e-03  0:00:42 1373

[...]
  1902  6.8188e-03  2.3343e-03  9.4364e-03  6.1744e-01  6.8138e-03  7.9132e-03  2.6085e-03  0:00:05   98
  1903  6.9478e-03  2.3592e-03  9.3997e-03  6.2428e-01  6.9426e-03  7.8668e-03  2.6210e-03  0:00:04   97

  iter  continuity  x-velocity  y-velocity  z-velocity      energy           k       omega     time/iter
  1904  7.0473e-03  2.3888e-03  9.3607e-03  6.3054e-01  7.0420e-03  7.8118e-03  2.6289e-03  0:00:22   96
  1905  7.0924e-03  2.4237e-03  9.3086e-03  6.3683e-01  7.0870e-03  7.7610e-03  2.6340e-03  0:00:17   95
  1906  7.1788e-03  2.4621e-03  9.2579e-03  6.4402e-01  7.1732e-03  7.7322e-03  2.6446e-03  0:00:14   94
  1907  7.3208e-03  2.5035e-03  9.2089e-03  6.4971e-01  7.3148e-03  7.7267e-03  2.6585e-03  0:00:11   93
  1908  7.4653e-03  2.5454e-03  9.1464e-03  6.5790e-01  7.4591e-03  7.7385e-03  2.6810e-03  0:00:09   92
  1909  7.5717e-03  2.5845e-03  9.0786e-03  6.6513e-01  7.5651e-03  7.7625e-03  2.6972e-03  0:00:07   91
  1910  7.6801e-03  2.6203e-03  9.0061e-03  6.7392e-01  7.6733e-03  7.7798e-03  2.7172e-03  0:00:05   90
  1911  7.7942e-03  2.6464e-03  8.9311e-03  6.8206e-01  7.7869e-03  7.7856e-03  2.7292e-03  0:00:04   89
  1912  7.8885e-03  2.6731e-03  8.8466e-03  6.9019e-01  7.8808e-03  7.7750e-03  2.7423e-03  0:00:03   88
  1913  8.0331e-03  2.6913e-03  8.7637e-03  6.9845e-01  8.0252e-03  7.7649e-03  2.7633e-03  0:00:03   87
  1914  8.2252e-03  2.7117e-03  8.6691e-03  7.0538e-01  8.2167e-03  7.7630e-03  2.7853e-03  0:00:19   86

  iter  continuity  x-velocity  y-velocity  z-velocity      energy           k       omega     time/iter
  1915  8.3851e-03  2.7335e-03  8.5618e-03  7.1270e-01  8.3762e-03  7.7649e-03  2.7983e-03  0:00:15   85
  1916  8.5219e-03  2.7529e-03  8.4488e-03  7.1683e-01  8.5127e-03  7.7727e-03  2.8157e-03  0:00:12   84
  1917  9.0034e-03  3.0159e-03  8.6230e-03  7.2241e-01  8.9945e-03  7.8030e-03  2.8139e-03  0:00:10   83
  1918  8.7977e-03  2.7359e-03  8.2769e-03  7.2620e-01  8.7879e-03  7.8481e-03  2.8361e-03  0:00:08   82
  1919  8.9304e-03  2.7206e-03  8.1046e-03  7.3115e-01  8.9203e-03  7.8994e-03  2.8579e-03  0:00:06   81
  1920  9.0437e-03  2.7384e-03  7.9697e-03  7.3439e-01  9.0335e-03  7.9562e-03  2.8833e-03  0:00:05   80
  1921  9.0725e-03  2.7578e-03  7.8428e-03  7.3663e-01  9.0621e-03  8.0184e-03  2.9046e-03  0:00:04   79
  1922  9.0946e-03  2.7740e-03  7.7236e-03  7.4025e-01  9.0841e-03  8.0866e-03  2.9278e-03  0:00:03   78
  1923  9.0828e-03  2.7853e-03  7.6129e-03  7.4242e-01  9.0722e-03  8.1492e-03  2.9502e-03  0:00:18   77
  1924  9.0815e-03  2.7884e-03  7.5148e-03  7.4138e-01  9.0709e-03  8.2147e-03  2.9729e-03  0:00:14   76
  1925  9.0623e-03  2.7862e-03  7.4211e-03  7.3829e-01  9.0516e-03  8.2896e-03  2.9909e-03  0:00:11   75

  iter  continuity  x-velocity  y-velocity  z-velocity      energy           k       omega     time/iter
  1926  9.0001e-03  2.7789e-03  7.3306e-03  7.3369e-01  8.9895e-03  8.3692e-03  3.0172e-03  0:00:09   74
  1927  8.9095e-03  2.7730e-03  7.2567e-03  7.2715e-01  8.8989e-03  8.4574e-03  3.0362e-03  0:00:07   73
  1928  8.8096e-03  2.7637e-03  7.1999e-03  7.1972e-01  8.7991e-03  8.5561e-03  3.0555e-03  0:00:05   72
  1929  8.6871e-03  2.7519e-03  7.1625e-03  7.0910e-01  8.6767e-03  8.6479e-03  3.0668e-03  0:00:04   71
  1930  8.5390e-03  2.7347e-03  7.1395e-03  6.9685e-01  8.5288e-03  8.7327e-03  3.0765e-03  0:00:03   70
  1931  8.3613e-03  2.7139e-03  7.1200e-03  6.8556e-01  8.3514e-03  8.8151e-03  3.0872e-03  0:00:03   69
  1932  8.1792e-03  2.6916e-03  7.1117e-03  6.7819e-01  8.1697e-03  8.9040e-03  3.1232e-03  0:00:16   68
  1933  7.9888e-03  2.6683e-03  7.1092e-03  6.7152e-01  7.9797e-03  9.0031e-03  3.1568e-03  0:00:12   67
  1934  7.7914e-03  2.6395e-03  7.1102e-03  6.6172e-01  7.7827e-03  9.1084e-03  3.1847e-03  0:00:10   66
  1935  7.5961e-03  2.6100e-03  7.1147e-03  6.5090e-01  7.5878e-03  9.2073e-03  3.2064e-03  0:00:08   65
  1936  7.4249e-03  2.5775e-03  7.1254e-03  6.4084e-01  7.4169e-03  9.3074e-03  3.2245e-03  0:00:06   64

  iter  continuity  x-velocity  y-velocity  z-velocity      energy           k       omega     time/iter
  1937  7.2860e-03  2.5415e-03  7.1431e-03  6.3437e-01  7.2782e-03  9.4089e-03  3.2374e-03  0:00:05   63
  1938  7.1617e-03  2.5051e-03  7.1584e-03  6.2906e-01  7.1541e-03  9.4734e-03  3.2381e-03  0:00:04   62
  1939  7.0682e-03  2.4726e-03  7.1744e-03  6.2513e-01  7.0609e-03  9.5378e-03  3.2569e-03  0:00:03   61
  1940  6.9970e-03  2.4462e-03  7.1992e-03  6.2167e-01  6.9898e-03  9.6012e-03  3.2746e-03  0:00:02   60
  1941  6.9340e-03  2.4166e-03  7.2376e-03  6.1759e-01  6.9270e-03  9.6501e-03  3.2988e-03  0:00:02   59
  1942  6.8983e-03  2.3836e-03  7.2847e-03  6.1693e-01  6.8915e-03  9.7015e-03  3.3146e-03  0:00:13   58
  1943  6.8753e-03  2.3590e-03  7.3384e-03  6.1748e-01  6.8688e-03  9.7414e-03  3.3362e-03  0:00:10   57
  1944  6.8692e-03  2.3382e-03  7.3931e-03  6.1783e-01  6.8630e-03  9.7751e-03  3.3501e-03  0:00:08   56
  1945  6.9139e-03  2.3221e-03  7.4480e-03  6.1715e-01  6.9078e-03  9.8278e-03  3.3724e-03  0:00:06   55
  1946  6.9948e-03  2.3088e-03  7.5011e-03  6.1726e-01  6.9888e-03  9.8936e-03  3.3821e-03  0:00:05   54
  1947  7.1052e-03  2.2997e-03  7.5458e-03  6.1659e-01  7.0993e-03  9.9320e-03  3.3861e-03  0:00:04   53

  iter  continuity  x-velocity  y-velocity  z-velocity      energy           k       omega     time/iter
  1948  7.2477e-03  2.2961e-03  7.5860e-03  6.1655e-01  7.2418e-03  9.9368e-03  3.3996e-03  0:00:03   52
  1949  7.3907e-03  2.2987e-03  7.6238e-03  6.1729e-01  7.3846e-03  9.9786e-03  3.4200e-03  0:00:02   51
  1950  7.5017e-03  2.3078e-03  7.6621e-03  6.2097e-01  7.4955e-03  9.9914e-03  3.4218e-03  0:00:02   50
  1951  7.5815e-03  2.3213e-03  7.6983e-03  6.2704e-01  7.5753e-03  9.9660e-03  3.4243e-03  0:00:11   49
  1952  7.6515e-03  2.3413e-03  7.7374e-03  6.3436e-01  7.6452e-03  9.9320e-03  3.4316e-03  0:00:09   48
  1953  7.7122e-03  2.3740e-03  7.7775e-03  6.3969e-01  7.7057e-03  9.8910e-03  3.4449e-03  0:00:07   47
  1954  7.7599e-03  2.4100e-03  7.8246e-03  6.4334e-01  7.7533e-03  9.9039e-03  3.4693e-03  0:00:05   46
  1955  7.7781e-03  2.4466e-03  7.8739e-03  6.4431e-01  7.7714e-03  9.9204e-03  3.4839e-03  0:00:04   45
  1956  7.7236e-03  2.4909e-03  7.9249e-03  6.4279e-01  7.7168e-03  9.9292e-03  3.4874e-03  0:00:03   44
  1957  7.5865e-03  2.5374e-03  7.9759e-03  6.3854e-01  7.5797e-03  9.9028e-03  3.4961e-03  0:00:03   43
  1958  7.4347e-03  2.5766e-03  8.0265e-03  6.3598e-01  7.4279e-03  9.9843e-03  3.5210e-03  0:00:02   42

  iter  continuity  x-velocity  y-velocity  z-velocity      energy           k       omega     time/iter
  1959  7.2599e-03  2.6218e-03  8.0711e-03  6.3535e-01  7.2531e-03  1.0095e-02  3.5268e-03  0:00:02   41
  1960  7.0550e-03  2.6669e-03  8.1157e-03  6.3574e-01  7.0481e-03  1.0165e-02  3.5293e-03  0:00:01   40
  1961  6.8443e-03  2.7141e-03  8.1590e-03  6.3758e-01  6.8374e-03  1.0240e-02  3.5393e-03  0:00:09   39
  1962  6.6256e-03  2.7635e-03  8.1993e-03  6.3982e-01  6.6187e-03  1.0239e-02  3.5497e-03  0:00:07   38
  1963  6.3981e-03  2.8138e-03  8.2416e-03  6.4246e-01  6.3911e-03  1.0235e-02  3.5604e-03  0:00:05   37
  1964  6.1864e-03  2.8647e-03  8.2870e-03  6.4357e-01  6.1794e-03  1.0316e-02  3.5652e-03  0:00:04   36
  1965  6.0464e-03  2.9160e-03  8.3347e-03  6.4263e-01  6.0393e-03  1.0358e-02  3.5804e-03  0:00:03   35
  1966  5.9519e-03  2.9596e-03  8.3843e-03  6.3948e-01  5.9446e-03  1.0346e-02  3.5807e-03  0:00:03   34
  1967  5.9043e-03  2.9953e-03  8.4368e-03  6.3355e-01  5.8969e-03  1.0366e-02  3.5736e-03  0:00:02   33
  1968  5.8984e-03  3.0256e-03  8.4927e-03  6.2742e-01  5.8909e-03  1.0266e-02  3.5672e-03  0:00:02   32
  1969  5.9038e-03  3.0548e-03  8.5473e-03  6.2440e-01  5.8963e-03  1.0320e-02  3.5668e-03  0:00:01   31

  iter  continuity  x-velocity  y-velocity  z-velocity      energy           k       omega     time/iter
  1970  5.9174e-03  3.0792e-03  8.5959e-03  6.2498e-01  5.9100e-03  1.0447e-02  3.5476e-03  0:00:07   30
  1971  5.9265e-03  3.0931e-03  8.6374e-03  6.2852e-01  5.9192e-03  1.0470e-02  3.5299e-03  0:00:05   29
  1972  5.9530e-03  3.1008e-03  8.6714e-03  6.3100e-01  5.9457e-03  1.0378e-02  3.4905e-03  0:00:04   28
  1973  5.9458e-03  3.1002e-03  8.6925e-03  6.3476e-01  5.9386e-03  1.0294e-02  3.4685e-03  0:00:03   27
  1974  5.9282e-03  3.0909e-03  8.7022e-03  6.3664e-01  5.9209e-03  1.0155e-02  3.4504e-03  0:00:02   26
  1975  5.9231e-03  3.0725e-03  8.7023e-03  6.3631e-01  5.9158e-03  1.0118e-02  3.4434e-03  0:00:02   25
  1976  6.3135e-03  3.2682e-03  8.8726e-03  6.3662e-01  6.3062e-03  1.0203e-02  3.4099e-03  0:00:01   24
  1977  6.0041e-03  2.9728e-03  8.7144e-03  6.3601e-01  5.9964e-03  1.0261e-02  3.3812e-03  0:00:01   23
  1978  5.9521e-03  2.9048e-03  8.6533e-03  6.3618e-01  5.9444e-03  1.0204e-02  3.3455e-03  0:00:01   22
  1979  5.9490e-03  2.8896e-03  8.6265e-03  6.3700e-01  5.9413e-03  1.0068e-02  3.3191e-03  0:00:01   21
  1980  5.9615e-03  2.8756e-03  8.6161e-03  6.3595e-01  5.9536e-03  9.9037e-03  3.2914e-03  0:00:04   20

  iter  continuity  x-velocity  y-velocity  z-velocity      energy           k       omega     time/iter
  1981  5.9590e-03  2.8465e-03  8.6129e-03  6.3486e-01  5.9509e-03  9.7967e-03  3.2758e-03  0:00:03   19
  1982  5.9544e-03  2.8032e-03  8.6092e-03  6.3679e-01  5.9462e-03  9.8107e-03  3.2613e-03  0:00:03   18
  1983  5.9509e-03  2.7504e-03  8.6054e-03  6.3846e-01  5.9426e-03  9.8622e-03  3.2401e-03  0:00:02   17
  1984  5.9515e-03  2.6945e-03  8.6027e-03  6.4001e-01  5.9430e-03  9.8898e-03  3.2198e-03  0:00:01   16
  1985  5.9498e-03  2.6386e-03  8.5972e-03  6.4117e-01  5.9413e-03  9.8283e-03  3.1832e-03  0:00:01   15
  1986  5.9488e-03  2.5791e-03  8.5877e-03  6.4204e-01  5.9401e-03  9.6974e-03  3.1373e-03  0:00:01   14
  1987  5.9545e-03  2.5222e-03  8.5789e-03  6.4075e-01  5.9458e-03  9.5756e-03  3.0979e-03  0:00:01   13
  1988  5.9814e-03  2.4681e-03  8.5745e-03  6.3887e-01  5.9727e-03  9.4750e-03  3.0594e-03  0:00:00   12
  1989  6.0189e-03  2.4148e-03  8.5749e-03  6.3605e-01  6.0101e-03  9.4766e-03  3.0297e-03  0:00:03   11
  1990  6.0816e-03  2.3642e-03  8.5829e-03  6.3230e-01  6.0729e-03  9.4861e-03  3.0042e-03  0:00:02   10
  1991  6.1574e-03  2.3157e-03  8.6007e-03  6.2902e-01  6.1487e-03  9.4912e-03  2.9794e-03  0:00:01    9

  iter  continuity  x-velocity  y-velocity  z-velocity      energy           k       omega     time/iter
  1992  6.2590e-03  2.2688e-03  8.6268e-03  6.2555e-01  6.2504e-03  9.4803e-03  2.9572e-03  0:00:01    8
  1993  6.3842e-03  2.2189e-03  8.6617e-03  6.2081e-01  6.3757e-03  9.4173e-03  2.9210e-03  0:00:01    7
  1994  6.4958e-03  2.1690e-03  8.7051e-03  6.1593e-01  6.4873e-03  9.3007e-03  2.8884e-03  0:00:00    6
  1995  6.5663e-03  2.1214e-03  8.7541e-03  6.1110e-01  6.5579e-03  9.1725e-03  2.8494e-03  0:00:00    5
  1996  6.6311e-03  2.0818e-03  8.8065e-03  6.0607e-01  6.6227e-03  9.0777e-03  2.8262e-03  0:00:01    4
  1997  6.7250e-03  2.0503e-03  8.8608e-03  5.9987e-01  6.7168e-03  9.0291e-03  2.8002e-03  0:00:01    3
  1998  6.7942e-03  2.0262e-03  8.9150e-03  5.9331e-01  6.7861e-03  9.0277e-03  2.7715e-03  0:00:00    2
  1999  6.8388e-03  2.0090e-03  8.9692e-03  5.8828e-01  6.8309e-03  9.0208e-03  2.7472e-03  0:00:00    1
  2000  6.8778e-03  1.9974e-03  9.0236e-03  5.8296e-01  6.8700e-03  8.9804e-03  2.7166e-03  0:00:00    0

> 
adjoint/                parallel/               server/
define/                 parametric-study/       solve/
display/                plot/                   surface/
exit                    preferences/            turbo-workflow/
file/                   print-license-usage     views/
mesh/                   report/

> /file/write-case-data project1
Fast-loading "C:\PROGRA~1\ANSYSI~1\v231\fluent\fluent23.1.0\\addons\afd\lib\hdfio.bin"
Done.

Writing to Engs-30669:"C:\Users\kebl7595\Desktop\CFD\Runs\Flap\test\project1.cas.h5" in NODE0 mode and compression level 1 ...
       24072 cells,     1 zone  ...
       80918 faces,     7 zones ...
       33000 nodes,     1 zone  ...
  Done.
Done.

Writing to Engs-30669:"C:\Users\kebl7595\Desktop\CFD\Runs\Flap\test\project1.dat.h5" in NODE0 mode and compression level 1 ...
  Writing results.
Done.

> /file/export/ascii "./surface.dat" wing () no pressure mach-number quit no

Writing "./surface.dat"...

Writing information to ascii file ...
Done.


> 
adjoint/                parallel/               server/
define/                 parametric-study/       solve/
display/                plot/                   surface/
exit                    preferences/            turbo-workflow/
file/                   print-license-usage     views/
mesh/                   report/

> ;/exit

> (cx-gui-do cx-set-list-tree-selections "NavigationPane*Frame2*Table1*List_Tree2" (list "Results|Plots"))
(cx-gui-do cx-set-list-tree-selections "NavigationPane*Frame2*Table1*List_Tree2" (list "Results|Graphics|Contours"))
(cx-gui-do cx-set-list-tree-selections "NavigationPane*Frame2*Table1*List_Tree2" (list "Results|Graphics|Contours"))
(cx-gui-do cx-activate-item "NavigationPane*Frame2*Table1*List_Tree2")
(cx-gui-do cx-set-list-tree-selections "NavigationPane*Frame2*Table1*List_Tree2" (list "Results|Graphics|Contours"))
(cx-gui-do cx-set-list-selections "Contours*Table1*Frame3*Frame2*List2(Surfaces)" '( 3))
(cx-gui-do cx-activate-item "Contours*Table1*Frame3*Frame2*List2(Surfaces)")
(cx-gui-do cx-activate-item "Contours*PanelButtons*PushButton1(OK)")
(cx-gui-do cx-set-list-tree-selections "NavigationPane*Frame2*Table1*List_Tree2" (list "Results|Graphics|Vectors"))
(cx-gui-do cx-set-list-tree-selections "NavigationPane*Frame2*Table1*List_Tree2" (list "Results|Graphics|Vectors"))
(cx-gui-do cx-set-list-tree-selections "NavigationPane*Frame2*Table1*List_Tree2" (list "Results|Graphics|Vectors"))
(cx-gui-do cx-activate-item "NavigationPane*Frame2*Table1*List_Tree2")
(cx-gui-do cx-set-list-tree-selections "NavigationPane*Frame2*Table1*List_Tree2" (list "Results|Graphics|Vectors"))
(cx-gui-do cx-set-list-selections "Vectors*Table1*Table3*Frame6*List2(Surfaces)" '( 3))
(cx-gui-do cx-activate-item "Vectors*Table1*Table3*Frame6*List2(Surfaces)")
(cx-gui-do cx-activate-item "Vectors*PanelButtons*PushButton1(OK)")
(cx-gui-do cx-activate-item "Vectors*PanelButtons*PushButton2(Cancel)")
(cx-use-window-id 51)
(cx-set-camera-relative '(0.266689 -0.805329 -0.103379) '(0 0 0) '(0.079118 -0.0281834 0.222078) 0 0)
(cx-use-window-id 51)
(cx-use-window-id 51)
(cx-use-window-id 51)
(cx-use-window-id 51)
(cx-set-camera-relative '(0.224913 -0.444453 -0.177103) '(0 0 0) '(0.023704 -0.0551443 0.164116) 0 0)
(cx-gui-do cx-activate-item "ToolBar*Pointer*translate")
(cx-use-window-id 51)
(cx-use-window-id 51)
(dolly-camera 0.10123 0.238604 0)
(cx-use-window-id 51)
(dolly-camera 0.113727 -0.0836542 0)
(cx-use-window-id 51)
(dolly-camera -0.255115 0.0170182 0)
(cx-use-window-id 51)
(dolly-camera -0.0192231 0.00393391 0)
(cx-use-window-id 51)
(cxg-clear-all-selections (cx-active-window))
(cxg-add-surfaces-to-selection '() (cx-active-window))
(cx-gui-do cx-set-list-tree-selections "NavigationPane*Frame2*Table1*List_Tree2" (list "Solution|Report Definitions"))
(cx-gui-do cx-set-list-tree-selections "NavigationPane*Frame2*Table1*List_Tree2" (list "Results|Reports"))
(cx-gui-do cx-set-list-tree-selections "NavigationPane*Frame2*Table1*List_Tree2" (list "Results|Reports"))
(cx-gui-do cx-activate-item "NavigationPane*Frame2*Table1*List_Tree2")
(cx-gui-do cx-set-list-tree-selections "NavigationPane*Frame2*Table1*List_Tree2" (list "Results|Reports"))
(cx-gui-do cx-set-list-tree-selections "NavigationPane*Frame2*Table1*List_Tree2" (list "Solution|Monitors"))
(cx-gui-do cx-set-list-tree-selections "NavigationPane*Frame2*Table1*List_Tree2" (list "Solution|Monitors"))
(cx-gui-do cx-activate-item "NavigationPane*Frame2*Table1*List_Tree2")
(cx-gui-do cx-set-list-tree-selections "NavigationPane*Frame2*Table1*List_Tree2" (list "Solution|Monitors"))
(cx-gui-do cx-set-list-tree-selections "NavigationPane*Frame2*Table1*List_Tree2" (list "Solution|Monitors|Report Files"))
(cx-gui-do cx-set-list-tree-selections "NavigationPane*Frame2*Table1*List_Tree2" (list "Solution|Monitors|Residual"))
(cx-gui-do cx-set-list-tree-selections "NavigationPane*Frame2*Table1*List_Tree2" (list "Solution|Monitors|Residual"))
(cx-gui-do cx-set-list-tree-selections "NavigationPane*Frame2*Table1*List_Tree2" (list "Solution|Monitors|Residual"))
(cx-gui-do cx-activate-item "Contours*PanelButtons*PushButton2(Cancel)")
(cx-gui-do cx-set-list-tree-selections "NavigationPane*Frame2*Table1*List_Tree2" (list "Solution|Monitors|Residual"))
(cx-gui-do cx-set-list-tree-selections "NavigationPane*Frame2*Table1*List_Tree2" (list "Solution|Monitors|Residual"))
(cx-gui-do cx-activate-item "NavigationPane*Frame2*Table1*List_Tree2")
(cx-gui-do cx-set-list-tree-selections "NavigationPane*Frame2*Table1*List_Tree2" (list "Solution|Monitors|Residual"))
(cx-gui-do cx-activate-item "Residual Monitors*PanelButtons*PushButton4(Plot)")
(cx-gui-do cx-activate-item "Residual Monitors*PanelButtons*PushButton1(OK)")
(cx-gui-do cx-activate-item "Ribbon*Frame1*Frame2(Domain)*Table1*Table3(Mesh)*PushButton1(Display)")
(cx-gui-do cx-set-list-selections "Mesh Display*Table1*Frame3*List1(Surfaces)" '( 0 3 4 5))
(cx-gui-do cx-activate-item "Mesh Display*Table1*Frame3*List1(Surfaces)")
(cx-gui-do cx-set-list-selections "Mesh Display*Table1*Frame3*List1(Surfaces)" '( 3 4 5))
(cx-gui-do cx-activate-item "Mesh Display*Table1*Frame3*List1(Surfaces)")
(cx-gui-do cx-set-list-selections "Mesh Display*Table1*Frame3*List1(Surfaces)" '( 3 5))
(cx-gui-do cx-activate-item "Mesh Display*Table1*Frame3*List1(Surfaces)")
(cx-gui-do cx-set-list-selections "Mesh Display*Table1*Frame3*List1(Surfaces)" '( 5))
(cx-gui-do cx-activate-item "Mesh Display*Table1*Frame3*List1(Surfaces)")
(cx-gui-do cx-set-list-selections "Mesh Display*Table1*Frame3*List1(Surfaces)" '( 3 5))
(cx-gui-do cx-activate-item "Mesh Display*Table1*Frame3*List1(Surfaces)")
(cx-gui-do cx-set-list-selections "Mesh Display*Table1*Frame3*List1(Surfaces)" '( 3 4 5))
(cx-gui-do cx-activate-item "Mesh Display*Table1*Frame3*List1(Surfaces)")
(cx-gui-do cx-activate-item "Mesh Display*PanelButtons*PushButton1(OK)")
(cx-gui-do cx-set-list-tree-selections "NavigationPane*Frame2*Table1*List_Tree2" (list "Results|Graphics|Pathlines"))
(cx-gui-do cx-set-list-tree-selections "NavigationPane*Frame2*Table1*List_Tree2" (list "Results|Graphics|Pathlines"))
(cx-gui-do cx-activate-item "NavigationPane*Frame2*Table1*List_Tree2")
(cx-gui-do cx-set-list-tree-selections "NavigationPane*Frame2*Table1*List_Tree2" (list "Results|Graphics|Pathlines"))
(cx-gui-do cx-set-list-selections "Pathlines*Frame4*List3(Release from Surfaces)" '( 3))
(cx-gui-do cx-activate-item "Pathlines*Frame4*List3(Release from Surfaces)")
(cx-gui-do cx-activate-item "Pathlines*PanelButtons*PushButton1(OK)")

number tracked = 8024, escaped = 7311, incomplete = 713
(cx-gui-do cx-activate-item "Pathlines*PanelButtons*PushButton2(Cancel)")
(cx-gui-do cx-activate-item "Mesh Display*PanelButtons*PushButton2(Cancel)")
(cx-gui-do cx-set-list-tree-selections "NavigationPane*Frame2*Table1*List_Tree2" (list "Results|Graphics|Particle Tracks"))
(cx-gui-do cx-set-list-tree-selections "NavigationPane*Frame2*Table1*List_Tree2" (list "Results|Graphics|Particle Tracks"))
(cx-gui-do cx-set-list-tree-selections "NavigationPane*Frame2*Table1*List_Tree2" (list "Results|Graphics|Particle Tracks"))
(cx-gui-do cx-activate-item "NavigationPane*Frame2*Table1*List_Tree2")
(cx-gui-do cx-set-list-tree-selections "NavigationPane*Frame2*Table1*List_Tree2" (list "Results|Graphics|Particle Tracks"))
(cx-gui-do cx-activate-item "Particle Tracks*PanelButtons*PushButton2(Cancel)")
(cx-use-window-id 51)
/exit y

Posting ANSYS Product Improvement Program performance data 
Done.
Auto-Transcript Stop Time:  10:07:01, 22 May 2024 GMT Daylight Time 
Total Transcript Time: 39 Minute 0 Second.
