Auto-Transcript Start Time:  09:41:01, 22 May 2024 GMT Daylight Time 
Current Directory: "C:\Users\kebl7595\Desktop\CFD\Runs\Flap\test"

              Welcome to ANSYS Fluent 2023 R1

              Copyright 1987-2023 ANSYS, Inc. All Rights Reserved.
              Unauthorized use, distribution or duplication is prohibited.
              This product is subject to U.S. laws governing export and re-export.
              For full Legal Notice, see documentation.

Build Time: Nov 28 2022 09:52:02 EST  Build Id: 10208  
 
Connected License Server List:	1055@ansyslic.eng.ox.ac.uk

*********************************************
Info: Your license enables 4-way parallel execution.
For faster simulations, please start the application with the appropriate parallel options.
*********************************************


     --------------------------------------------------------------
     This is an academic version of ANSYS FLUENT. Usage of this product
     license is limited to the terms and conditions specified in your ANSYS
     license form, additional terms section.
     --------------------------------------------------------------
Host spawning Node 0 on machine "Engs-30669" (win64).

------------------------------------------------------------------------------------
ID    Hostname    Core  O.S.         PID    Vendor                                 
------------------------------------------------------------------------------------
n0    Engs-30669  1/32  Windows-x64  49860  13th Gen Intel(R) Core(TM) i9-13900    
host  Engs-30669        Windows-x64  36404  13th Gen Intel(R) Core(TM) i9-13900    

MPI Option Selected: intel
------------------------------------------------------------------------------------

Cleanup script file is C:\\Users\\kebl7595\\Desktop\\CFD\\Runs\\Flap\\test\\cleanup-fluent-Engs-30669-36404.bat

Posting ANSYS Product Improvement Program startup data
Done.

Reading journal file C:/Users/kebl7595/Desktop/CFD/Runs/Flap/test/project1.jou...

> /file/set-batch-options no no no 

> 
define/                 parametric-study/       solve/
display/                plot/                   surface/
exit                    preferences/            switch-to-meshing-mode
file/                   print-license-usage     turbo-workflow/
mesh/                   report/                 views/
parallel/               server/

> /file/import/cgns/mesh  "./project1.cgns"
Engs-30669 has other FLUENT parallel processes running.                       Process affinity not being set.

Importing "./project1.cgns"

Opening library "C:\\PROGRA~1\\ANSYSI~1\\v231\\fluent\\fluent23.1.0\\vki\\win64\\devtools4.4.6.dll"... done.

Read    33000 nodes
   24072 hexahedral cells, zone  1
   17404 quadrilateral wall faces, zone  2.
   63040 quadrilateral interior faces, zone  3.
     474 quadrilateral interface faces, zone  4.

Building...
     mesh
     materials,
     interface,
     domains,
     zones,
	interface-default_subface
	default_interior-1
	default_subface
	default
     parallel,
The automatic selection for flux type has changed to Rhie-Chow: momentum based.

Done.


> 
adjoint/                parallel/               server/
define/                 parametric-study/       solve/
display/                plot/                   surface/
exit                    preferences/            turbo-workflow/
file/                   print-license-usage     views/
mesh/                   report/

> /define/models/solver/density-based-implicit yes

> 
adjoint/                parallel/               server/
define/                 parametric-study/       solve/
display/                plot/                   surface/
exit                    preferences/            turbo-workflow/
file/                   print-license-usage     views/
mesh/                   report/

> /define/models/energy? yes yes invalid command [yes]
yes

> /define/models/viscous/kw-standard? yes

> 
adjoint/                parallel/               server/
define/                 parametric-study/       solve/
display/                plot/                   surface/
exit                    preferences/            turbo-workflow/
file/                   print-license-usage     views/
mesh/                   report/

> /define/materials/change-create air air air is a fluid
yes 
Density
ideal-gas no data required.

no no no no no no

> 
adjoint/                parallel/               server/
define/                 parametric-study/       solve/
display/                plot/                   surface/
exit                    preferences/            turbo-workflow/
file/                   print-license-usage     views/
mesh/                   report/

> /mesh/modify-zones/sep-face-zone-angle 2 90 yes

 8024 faces in contiguous region 0
 441 faces in contiguous region 1
 618 faces in contiguous region 2
 8024 faces in contiguous region 3
 297 faces in contiguous region 4
 Separates zone 2 into 5 zone(s).
Updating new zone information...
   created new zone default_subface:009 from default_subface
   created new zone default_subface:008 from default_subface
   created new zone default_subface:007 from default_subface
   created new zone default_subface:006 from default_subface
done.

> 
adjoint/                parallel/               server/
define/                 parametric-study/       solve/
display/                plot/                   surface/
exit                    preferences/            turbo-workflow/
file/                   print-license-usage     views/
mesh/                   report/

> /define/boundary-conditions/zone-name  6 wing

> /define/boundary-conditions/zone-name  2 sym1

> /define/boundary-conditions/zone-name  8 sym2

> 
adjoint/                parallel/               server/
define/                 parametric-study/       solve/
display/                plot/                   surface/
exit                    preferences/            turbo-workflow/
file/                   print-license-usage     views/
mesh/                   report/

> /define/boundary-conditions/zone-name  7 far1

> /define/boundary-conditions/zone-name 9 far2

> 
adjoint/                parallel/               server/
define/                 parametric-study/       solve/
display/                plot/                   surface/
exit                    preferences/            turbo-workflow/
file/                   print-license-usage     views/
mesh/                   report/

> /define/boundary-conditions/zone-type  7 pressure-far-field

> /define/boundary-conditions/zone-type 9 pressure-far-field

> /define/boundary-conditions/zone-type  2 symmetry

> /define/boundary-conditions/zone-type  8 symmetry

> 
adjoint/                parallel/               server/
define/                 parametric-study/       solve/
display/                plot/                   surface/
exit                    preferences/            turbo-workflow/
file/                   print-license-usage     views/
mesh/                   report/

> /define/boundary-conditions/pressure-far-field (far2 far1)
far1 no 0 no 0.1 no 300 yes no 0.939693 no 0.342020 no 0. no yes 5 0.02

> /define/boundary-conditions/pressure-far-field (far2 far1)
far2 no 0 no 0.1 no 300 yes no 0.939693 no 0.342020 no 0. no yes 5 0.02

> 
adjoint/                parallel/               server/
define/                 parametric-study/       solve/
display/                plot/                   surface/
exit                    preferences/            turbo-workflow/
file/                   print-license-usage     views/
mesh/                   report/

> /solve/initialize/compute-defaults/pressure-far-field (far2 far1)
far1

> /solve/initialize/initialize-flow

> 
adjoint/                parallel/               server/
define/                 parametric-study/       solve/
display/                plot/                   surface/
exit                    preferences/            turbo-workflow/
file/                   print-license-usage     views/
mesh/                   report/

> /solve/monitors/residual/convergence-criteria 1.e-9 1.e-9 1.e-9 1.e-9 1.e-9 1.e-9 1.e-9

> /solve/iterate 2000

  iter  continuity  x-velocity  y-velocity  z-velocity      energy           k       omega     time/iter
     1  1.0000e+00  1.0000e+00  1.0000e+00  1.0000e+00  1.0000e+00  4.4386e-02  5.1364e-02  0:00:00 1999
     2  4.5685e-01  2.5684e-01  3.0820e-01  1.0000e+00  4.5860e-01  3.9232e-02  3.5353e-02  0:00:00 1998
     3  2.0443e-01  1.3872e-01  1.4897e-01  9.1277e-01  2.0457e-01  3.4986e-02  2.9616e-02  0:00:00 1997
     4  1.6112e-01  8.1836e-02  1.0039e-01  8.8811e-01  1.6177e-01  3.1564e-02  2.6560e-02  0:00:00 1996
     5  1.3698e-01  5.7098e-02  7.7952e-02  9.3758e-01  1.3780e-01  2.8786e-02  2.4622e-02  0:33:15 1995
     6  1.1398e-01  4.3100e-02  6.3544e-02  1.0180e+00  1.1460e-01  2.6389e-02  2.2927e-02  0:26:35 1994
     7  1.0328e-01  3.1339e-02  5.3367e-02  1.1000e+00  1.0373e-01  2.4306e-02  2.1488e-02  0:21:16 1993
     8  1.0223e-01  2.3147e-02  4.7881e-02  1.1407e+00  1.0263e-01  2.2518e-02  2.0205e-02  0:17:00 1992
     9  1.0317e-01  1.8216e-02  4.5005e-02  1.1454e+00  1.0356e-01  2.1060e-02  1.9070e-02  0:13:36 1991
    10  1.0412e-01  1.5588e-02  4.3793e-02  1.1149e+00  1.0448e-01  1.9820e-02  1.8107e-02  0:10:52 1990
    11  1.0283e-01  1.4283e-02  4.2846e-02  1.0514e+00  1.0315e-01  1.8731e-02  1.7243e-02  0:08:41 1989

  iter  continuity  x-velocity  y-velocity  z-velocity      energy           k       omega     time/iter
    12  1.0060e-01  1.4033e-02  4.1786e-02  9.4629e-01  1.0088e-01  1.7774e-02  1.6471e-02  0:06:57 1988
    13  9.8277e-02  1.4450e-02  4.0673e-02  8.6998e-01  9.8506e-02  1.6910e-02  1.5797e-02  0:05:33 1987
    14  9.5681e-02  1.4921e-02  3.9540e-02  8.2688e-01  9.5871e-02  1.6137e-02  1.5194e-02  0:04:27 1986
    15  9.3169e-02  1.5443e-02  3.8350e-02  8.2041e-01  9.3331e-02  1.5433e-02  1.4634e-02  0:10:10 1985
    16  9.0617e-02  1.6011e-02  3.6963e-02  8.4188e-01  9.0762e-02  1.4816e-02  1.4112e-02  0:08:08 1984
    17  8.8169e-02  1.6331e-02  3.5729e-02  8.8726e-01  8.8309e-02  1.4246e-02  1.3670e-02  0:06:30 1983
    18  8.4779e-02  1.6400e-02  3.4755e-02  9.4825e-01  8.4907e-02  1.3734e-02  1.3278e-02  0:05:12 1982
    19  7.9196e-02  1.6254e-02  3.3440e-02  1.0189e+00  7.9308e-02  1.3314e-02  1.2886e-02  0:04:09 1981
    20  7.1420e-02  1.5712e-02  3.1810e-02  1.0917e+00  7.1506e-02  1.2940e-02  1.2506e-02  0:03:19 1980
    21  6.1865e-02  1.5015e-02  2.9743e-02  1.1577e+00  6.1922e-02  1.2601e-02  1.2176e-02  0:02:39 1979
    22  5.1633e-02  1.4057e-02  2.7691e-02  1.2011e+00  5.1661e-02  1.2308e-02  1.1833e-02  0:02:08 1978

  iter  continuity  x-velocity  y-velocity  z-velocity      energy           k       omega     time/iter
    23  4.1581e-02  1.2950e-02  2.5864e-02  1.2173e+00  4.1582e-02  1.2048e-02  1.1508e-02  0:01:42 1977
    24  3.4798e-02  1.1499e-02  2.4937e-02  1.2012e+00  3.4778e-02  1.1805e-02  1.1277e-02  0:01:22 1976
    25  3.2869e-02  1.0001e-02  2.4370e-02  1.1676e+00  3.2854e-02  1.1575e-02  1.1028e-02  0:07:40 1975
    26  3.4641e-02  9.1183e-03  2.4268e-02  1.1307e+00  3.4652e-02  1.1387e-02  1.0754e-02  0:06:08 1974
    27  3.9035e-02  8.5219e-03  2.4543e-02  1.0920e+00  3.9074e-02  1.1181e-02  1.0498e-02  0:04:54 1973
    28  4.3117e-02  8.3863e-03  2.4999e-02  1.0485e+00  4.3177e-02  1.1021e-02  1.0172e-02  0:03:55 1972
    29  4.5252e-02  8.4969e-03  2.5261e-02  1.0022e+00  4.5326e-02  1.0871e-02  9.9299e-03  0:03:08 1971
    30  4.6019e-02  8.7202e-03  2.5137e-02  9.6134e-01  4.6101e-02  1.0709e-02  9.7154e-03  0:02:30 1970
    31  4.6129e-02  8.6257e-03  2.4750e-02  9.2496e-01  4.6217e-02  1.0553e-02  9.5265e-03  0:02:00 1969
    32  4.4828e-02  8.5894e-03  2.3901e-02  8.9316e-01  4.4914e-02  1.0410e-02  9.3450e-03  0:08:10 1968
    33  4.2911e-02  8.3016e-03  2.2949e-02  8.7060e-01  4.2992e-02  1.0282e-02  9.1479e-03  0:06:32 1967

  iter  continuity  x-velocity  y-velocity  z-velocity      energy           k       omega     time/iter
    34  4.0250e-02  7.5678e-03  2.2046e-02  8.4433e-01  4.0318e-02  1.0170e-02  8.9378e-03  0:05:13 1966
    35  3.6400e-02  6.8043e-03  2.1097e-02  8.1447e-01  3.6443e-02  1.0040e-02  8.7232e-03  0:04:10 1965
    36  3.2180e-02  6.0128e-03  2.0130e-02  7.7841e-01  3.2188e-02  9.8900e-03  8.4921e-03  0:03:20 1964
    37  2.8432e-02  5.3342e-03  1.9147e-02  7.4624e-01  2.8411e-02  9.7300e-03  8.2667e-03  0:02:40 1963
    38  2.5708e-02  4.7966e-03  1.8239e-02  7.1422e-01  2.5670e-02  9.5674e-03  8.0633e-03  0:02:08 1962
    39  2.3669e-02  4.3715e-03  1.7509e-02  6.9135e-01  2.3620e-02  9.4515e-03  7.8717e-03  0:01:42 1961
    40  2.2113e-02  4.0004e-03  1.7033e-02  6.7237e-01  2.2061e-02  9.3306e-03  7.6930e-03  0:01:22 1960
    41  2.0924e-02  3.7292e-03  1.6800e-02  6.5132e-01  2.0871e-02  9.2326e-03  7.5231e-03  0:01:05 1959
    42  1.9844e-02  3.5225e-03  1.6852e-02  6.2613e-01  1.9789e-02  9.1446e-03  7.3382e-03  0:07:24 1958
    43  1.8899e-02  3.3292e-03  1.6553e-02  6.0079e-01  1.8844e-02  9.0349e-03  7.1928e-03  0:05:55 1957
    44  1.8012e-02  3.2200e-03  1.6263e-02  5.7469e-01  1.7956e-02  8.9234e-03  7.0531e-03  0:04:44 1956

  iter  continuity  x-velocity  y-velocity  z-velocity      energy           k       omega     time/iter
    45  1.7383e-02  3.1946e-03  1.5982e-02  5.4951e-01  1.7327e-02  8.8577e-03  6.9476e-03  0:03:47 1955
    46  1.7040e-02  3.2252e-03  1.5681e-02  5.2632e-01  1.6986e-02  8.8009e-03  6.8712e-03  0:03:01 1954
    47  1.6980e-02  3.2703e-03  1.5406e-02  5.0672e-01  1.6929e-02  8.7334e-03  6.7927e-03  0:02:25 1953
    48  1.7215e-02  3.3042e-03  1.5212e-02  4.9155e-01  1.7166e-02  8.6802e-03  6.7374e-03  0:01:56 1952
    49  1.7592e-02  3.3128e-03  1.5086e-02  4.8203e-01  1.7547e-02  8.6442e-03  6.6796e-03  0:01:33 1951
    50  1.8006e-02  3.3233e-03  1.4949e-02  4.7796e-01  1.7965e-02  8.6477e-03  6.6470e-03  0:01:14 1950
    51  1.8480e-02  3.3292e-03  1.4760e-02  4.7272e-01  1.8443e-02  8.6587e-03  6.6237e-03  0:00:59 1949
    52  1.9085e-02  3.3350e-03  1.4520e-02  4.8058e-01  1.9052e-02  8.6660e-03  6.6081e-03  0:07:17 1948
    53  1.9768e-02  3.3329e-03  1.4235e-02  4.9071e-01  1.9740e-02  8.6688e-03  6.5838e-03  0:05:49 1947
    54  2.0487e-02  3.3351e-03  1.3936e-02  5.0319e-01  2.0462e-02  8.6774e-03  6.5656e-03  0:04:39 1946
    55  2.1243e-02  3.3364e-03  1.3654e-02  5.1819e-01  2.1222e-02  8.6971e-03  6.5337e-03  0:03:43 1945

  iter  continuity  x-velocity  y-velocity  z-velocity      energy           k       omega     time/iter
    56  2.1966e-02  3.3063e-03  1.3412e-02  5.3239e-01  2.1947e-02  8.7098e-03  6.5111e-03  0:02:59 1944
    57  2.2671e-02  3.2886e-03  1.3221e-02  5.4430e-01  2.2654e-02  8.7364e-03  6.4879e-03  0:02:23 1943
    58  2.3328e-02  3.2726e-03  1.3050e-02  5.5686e-01  2.3313e-02  8.7541e-03  6.4551e-03  0:01:54 1942
    59  2.4004e-02  3.2549e-03  1.2863e-02  5.6820e-01  2.3992e-02  8.7760e-03  6.4302e-03  0:01:31 1941
    60  2.4490e-02  3.2581e-03  1.2654e-02  5.7702e-01  2.4480e-02  8.8128e-03  6.4109e-03  0:01:13 1940
    61  2.4762e-02  3.2607e-03  1.2436e-02  5.8154e-01  2.4752e-02  8.8488e-03  6.3769e-03  0:07:26 1939
    62  2.4952e-02  3.2743e-03  1.2225e-02  5.8060e-01  2.4943e-02  8.8928e-03  6.3365e-03  0:05:57 1938
    63  2.5006e-02  3.2918e-03  1.2041e-02  5.7405e-01  2.4997e-02  8.9456e-03  6.3025e-03  0:04:45 1937
    64  2.4886e-02  3.3023e-03  1.1890e-02  5.6269e-01  2.4878e-02  9.0035e-03  6.2561e-03  0:03:48 1936
    65  2.4538e-02  3.3210e-03  1.1774e-02  5.4679e-01  2.4530e-02  9.0751e-03  6.1948e-03  0:03:02 1935
    66  2.3940e-02  3.3366e-03  1.1683e-02  5.2824e-01  2.3932e-02  9.1542e-03  6.1281e-03  0:02:26 1934

  iter  continuity  x-velocity  y-velocity  z-velocity      energy           k       omega     time/iter
    67  2.3168e-02  3.3418e-03  1.1604e-02  5.0630e-01  2.3159e-02  9.2548e-03  6.0565e-03  0:01:57 1933
    68  2.2245e-02  3.3455e-03  1.1525e-02  4.8325e-01  2.2235e-02  9.3544e-03  5.9729e-03  0:01:33 1932
    69  2.1197e-02  3.3452e-03  1.1428e-02  4.5928e-01  2.1187e-02  9.4622e-03  5.9086e-03  0:01:15 1931
    70  2.0082e-02  3.3376e-03  1.1307e-02  4.3628e-01  2.0069e-02  9.5688e-03  5.8326e-03  0:01:00 1930
    71  1.8971e-02  3.3111e-03  1.1151e-02  4.1699e-01  1.8956e-02  9.6797e-03  5.7569e-03  0:07:13 1929
    72  1.7936e-02  3.2855e-03  1.0976e-02  4.0390e-01  1.7920e-02  9.8076e-03  5.6882e-03  0:05:47 1928
    73  1.7028e-02  3.2587e-03  1.0790e-02  3.9952e-01  1.7009e-02  9.9486e-03  5.6271e-03  0:04:37 1927
    74  1.6293e-02  3.2274e-03  1.0613e-02  4.0539e-01  1.6271e-02  1.0103e-02  5.5720e-03  0:03:42 1926
    75  1.5735e-02  3.1837e-03  1.0457e-02  4.2194e-01  1.5711e-02  1.0261e-02  5.5269e-03  0:02:57 1925
    76  1.5361e-02  3.1371e-03  1.0333e-02  4.4828e-01  1.5335e-02  1.0433e-02  5.4848e-03  0:02:22 1924
    77  1.5130e-02  3.0764e-03  1.0258e-02  4.8201e-01  1.5103e-02  1.0603e-02  5.4455e-03  0:01:53 1923

  iter  continuity  x-velocity  y-velocity  z-velocity      energy           k       omega     time/iter
    78  1.4857e-02  3.0207e-03  1.0224e-02  5.2083e-01  1.4829e-02  1.0762e-02  5.4056e-03  0:01:31 1922
    79  1.4413e-02  2.9726e-03  1.0232e-02  5.6230e-01  1.4385e-02  1.0919e-02  5.3732e-03  0:01:12 1921
    80  1.3816e-02  2.9326e-03  1.0277e-02  6.0414e-01  1.3789e-02  1.1091e-02  5.3350e-03  0:00:58 1920
    81  1.3125e-02  2.8976e-03  1.0349e-02  6.4479e-01  1.3099e-02  1.1263e-02  5.3113e-03  0:07:10 1919
    82  1.2416e-02  2.8746e-03  1.0428e-02  6.8292e-01  1.2391e-02  1.1442e-02  5.2844e-03  0:05:44 1918
    83  1.1754e-02  2.8556e-03  1.0489e-02  7.1728e-01  1.1730e-02  1.1616e-02  5.2655e-03  0:04:35 1917
    84  1.1236e-02  2.8439e-03  1.0516e-02  7.4679e-01  1.1213e-02  1.1793e-02  5.2473e-03  0:03:40 1916
    85  1.0916e-02  2.8562e-03  1.0507e-02  7.7149e-01  1.0894e-02  1.1992e-02  5.2181e-03  0:02:56 1915
    86  1.0822e-02  2.9034e-03  1.0467e-02  7.8963e-01  1.0800e-02  1.2189e-02  5.1958e-03  0:02:21 1914
    87  1.0908e-02  2.9692e-03  1.0405e-02  7.9941e-01  1.0887e-02  1.2390e-02  5.1738e-03  0:01:52 1913
    88  1.1079e-02  3.0441e-03  1.0336e-02  8.0495e-01  1.1058e-02  1.2635e-02  5.1483e-03  0:01:30 1912

  iter  continuity  x-velocity  y-velocity  z-velocity      energy           k       omega     time/iter
    89  1.1331e-02  3.1273e-03  1.0282e-02  8.0190e-01  1.1310e-02  1.2910e-02  5.1316e-03  0:01:12 1911
    90  1.1608e-02  3.2174e-03  1.0261e-02  7.9437e-01  1.1588e-02  1.3216e-02  5.1265e-03  0:07:19 1910
    91  1.1880e-02  3.3095e-03  1.0286e-02  7.8187e-01  1.1861e-02  1.3537e-02  5.1352e-03  0:05:51 1909
    92  1.2130e-02  3.4161e-03  1.0342e-02  7.6119e-01  1.2112e-02  1.3794e-02  5.1495e-03  0:04:41 1908
    93  1.2351e-02  3.5248e-03  1.0426e-02  7.3470e-01  1.2334e-02  1.4047e-02  5.1705e-03  0:03:45 1907
    94  1.2581e-02  3.6301e-03  1.0540e-02  7.0267e-01  1.2565e-02  1.4255e-02  5.1999e-03  0:03:00 1906
    95  1.2848e-02  3.7348e-03  1.0671e-02  6.7244e-01  1.2834e-02  1.4449e-02  5.2166e-03  0:02:24 1905
    96  1.3147e-02  3.8283e-03  1.0798e-02  6.3903e-01  1.3134e-02  1.4630e-02  5.2110e-03  0:01:55 1904
    97  1.3493e-02  3.9122e-03  1.0904e-02  6.0632e-01  1.3481e-02  1.4784e-02  5.2133e-03  0:01:32 1903
    98  1.3872e-02  3.9986e-03  1.0982e-02  5.7593e-01  1.3861e-02  1.4824e-02  5.2201e-03  0:01:13 1902
    99  1.4197e-02  4.0615e-03  1.1119e-02  5.4757e-01  1.4187e-02  1.4820e-02  5.2293e-03  0:00:59 1901

  iter  continuity  x-velocity  y-velocity  z-velocity      energy           k       omega     time/iter
   100  1.4590e-02  4.1587e-03  1.1074e-02  5.2367e-01  1.4580e-02  1.4784e-02  5.2411e-03  0:07:07 1900
   101  1.5017e-02  4.2590e-03  1.1048e-02  5.0523e-01  1.5008e-02  1.4721e-02  5.2452e-03  0:05:41 1899
   102  1.5433e-02  4.3535e-03  1.1012e-02  4.9367e-01  1.5424e-02  1.4731e-02  5.2520e-03  0:04:33 1898
   103  1.5830e-02  4.4466e-03  1.0970e-02  4.8852e-01  1.5821e-02  1.4749e-02  5.2617e-03  0:03:38 1897
   104  1.6178e-02  4.5388e-03  1.0918e-02  4.8702e-01  1.6169e-02  1.4798e-02  5.2635e-03  0:02:55 1896
   105  1.6458e-02  4.6275e-03  1.0858e-02  4.8907e-01  1.6449e-02  1.4809e-02  5.2627e-03  0:02:20 1895
   106  1.6623e-02  4.6996e-03  1.0794e-02  4.9632e-01  1.6613e-02  1.4762e-02  5.2505e-03  0:01:52 1894
   107  1.6736e-02  4.7593e-03  1.0727e-02  5.1074e-01  1.6725e-02  1.4688e-02  5.2371e-03  0:01:29 1893
   108  1.6757e-02  4.7963e-03  1.0648e-02  5.2214e-01  1.6746e-02  1.4589e-02  5.2248e-03  0:01:11 1892
   109  1.6892e-02  4.8258e-03  1.0583e-02  5.3178e-01  1.6880e-02  1.4513e-02  5.2047e-03  0:00:57 1891
   110  1.6783e-02  4.8589e-03  1.0518e-02  5.3963e-01  1.6770e-02  1.4410e-02  5.1853e-03  0:07:04 1890

  iter  continuity  x-velocity  y-velocity  z-velocity      energy           k       omega     time/iter
   111  1.6763e-02  4.8850e-03  1.0453e-02  5.4525e-01  1.6748e-02  1.4303e-02  5.1672e-03  0:05:39 1889
   112  1.6716e-02  4.9085e-03  1.0387e-02  5.4956e-01  1.6701e-02  1.4243e-02  5.1552e-03  0:04:31 1888
   113  1.6592e-02  4.9349e-03  1.0358e-02  5.5266e-01  1.6576e-02  1.4174e-02  5.1391e-03  0:03:37 1887
   114  1.6415e-02  4.9416e-03  1.0347e-02  5.5367e-01  1.6398e-02  1.4089e-02  5.1309e-03  0:02:53 1886
   115  1.6212e-02  4.9563e-03  1.0332e-02  5.5647e-01  1.6194e-02  1.4027e-02  5.1390e-03  0:02:18 1885
   116  1.5922e-02  4.9784e-03  1.0346e-02  5.5850e-01  1.5903e-02  1.3966e-02  5.1384e-03  0:01:51 1884
   117  1.5584e-02  5.0008e-03  1.0398e-02  5.5798e-01  1.5566e-02  1.3943e-02  5.1278e-03  0:01:29 1883
   118  1.5150e-02  5.0033e-03  1.0435e-02  5.5358e-01  1.5130e-02  1.3934e-02  5.1167e-03  0:01:11 1882
   119  1.4634e-02  4.9923e-03  1.0477e-02  5.4543e-01  1.4614e-02  1.3935e-02  5.0866e-03  0:07:13 1881
   120  1.4073e-02  4.9684e-03  1.0537e-02  5.3496e-01  1.4052e-02  1.3916e-02  5.0748e-03  0:05:46 1880
   121  1.3508e-02  4.9532e-03  1.0593e-02  5.2353e-01  1.3486e-02  1.3963e-02  5.0598e-03  0:04:37 1879

  iter  continuity  x-velocity  y-velocity  z-velocity      energy           k       omega     time/iter
   122  1.2942e-02  4.9356e-03  1.0646e-02  5.1254e-01  1.2919e-02  1.4012e-02  5.0424e-03  0:03:41 1878
   123  1.2397e-02  4.9098e-03  1.0712e-02  5.0280e-01  1.2374e-02  1.4105e-02  5.0435e-03  0:02:57 1877
   124  1.1954e-02  4.8845e-03  1.0798e-02  4.9329e-01  1.1930e-02  1.4174e-02  5.0419e-03  0:02:21 1876
   125  1.1615e-02  4.8641e-03  1.0875e-02  4.8792e-01  1.1592e-02  1.4257e-02  5.0273e-03  0:01:53 1875
   126  1.1412e-02  4.8489e-03  1.0925e-02  4.8021e-01  1.1388e-02  1.4327e-02  5.0238e-03  0:01:30 1874
   127  1.1353e-02  4.8350e-03  1.0994e-02  4.7673e-01  1.1329e-02  1.4378e-02  5.0163e-03  0:01:12 1873
   128  1.1422e-02  4.8282e-03  1.1066e-02  4.7882e-01  1.1398e-02  1.4440e-02  4.9907e-03  0:00:58 1872
   129  1.1627e-02  4.8293e-03  1.1138e-02  4.8696e-01  1.1604e-02  1.4508e-02  4.9706e-03  0:07:00 1871
   130  1.1780e-02  4.8285e-03  1.1223e-02  4.9707e-01  1.1757e-02  1.4575e-02  4.9304e-03  0:05:36 1870
   131  1.1882e-02  4.8224e-03  1.1321e-02  4.9822e-01  1.1859e-02  1.4610e-02  4.8957e-03  0:04:29 1869
   132  1.1777e-02  4.8103e-03  1.1425e-02  5.0759e-01  1.1754e-02  1.4637e-02  4.8474e-03  0:03:35 1868

  iter  continuity  x-velocity  y-velocity  z-velocity      energy           k       omega     time/iter
   133  1.1398e-02  4.8042e-03  1.1530e-02  5.2097e-01  1.1373e-02  1.4617e-02  4.8029e-03  0:02:52 1867
   134  1.1080e-02  4.7989e-03  1.1630e-02  5.3625e-01  1.1055e-02  1.4578e-02  4.7751e-03  0:02:17 1866
   135  1.0729e-02  4.7930e-03  1.1736e-02  5.5699e-01  1.0704e-02  1.4517e-02  4.7438e-03  0:01:50 1865
   136  1.0322e-02  4.7823e-03  1.1839e-02  5.8082e-01  1.0296e-02  1.4416e-02  4.7133e-03  0:01:28 1864
   137  1.0025e-02  4.7717e-03  1.1951e-02  6.0591e-01  9.9988e-03  1.4347e-02  4.6847e-03  0:01:10 1863
   138  1.0095e-02  4.7648e-03  1.2067e-02  6.3371e-01  1.0069e-02  1.4267e-02  4.6529e-03  0:07:09 1862
   139  1.0502e-02  4.7597e-03  1.2194e-02  6.6448e-01  1.0477e-02  1.4193e-02  4.6138e-03  0:05:43 1861
   140  1.1162e-02  4.7564e-03  1.2334e-02  6.9554e-01  1.1138e-02  1.4121e-02  4.5696e-03  0:04:34 1860
   141  1.2029e-02  4.7549e-03  1.2491e-02  7.2844e-01  1.2005e-02  1.4023e-02  4.5203e-03  0:03:39 1859
   142  1.2911e-02  4.7519e-03  1.2662e-02  7.6113e-01  1.2888e-02  1.3925e-02  4.4649e-03  0:02:55 1858
   143  1.3819e-02  4.7460e-03  1.2837e-02  7.9207e-01  1.3798e-02  1.3811e-02  4.4401e-03  0:02:20 1857

  iter  continuity  x-velocity  y-velocity  z-velocity      energy           k       omega     time/iter
   144  1.4906e-02  4.7376e-03  1.3000e-02  8.2405e-01  1.4885e-02  1.3726e-02  4.4352e-03  0:01:52 1856
   145  1.6042e-02  4.7293e-03  1.3180e-02  8.5721e-01  1.6021e-02  1.3638e-02  4.4347e-03  0:01:30 1855
   146  1.7004e-02  4.7131e-03  1.3375e-02  8.9187e-01  1.6983e-02  1.3548e-02  4.4213e-03  0:01:12 1854
   147  1.7892e-02  4.6941e-03  1.3571e-02  9.2560e-01  1.7871e-02  1.3447e-02  4.4151e-03  0:00:57 1853
   148  1.8644e-02  4.6860e-03  1.3775e-02  9.5408e-01  1.8623e-02  1.3353e-02  4.4034e-03  0:06:56 1852
   149  1.9293e-02  4.6889e-03  1.3988e-02  9.8229e-01  1.9273e-02  1.3245e-02  4.4059e-03  0:05:33 1851
   150  1.9850e-02  4.6989e-03  1.4192e-02  1.0107e+00  1.9830e-02  1.3119e-02  4.3995e-03  0:04:26 1850
   151  2.0289e-02  4.7373e-03  1.4403e-02  1.0386e+00  2.0268e-02  1.2995e-02  4.3951e-03  0:03:33 1849
   152  2.0583e-02  4.7881e-03  1.4616e-02  1.0650e+00  2.0564e-02  1.2878e-02  4.3919e-03  0:02:50 1848
   153  2.0728e-02  4.8847e-03  1.4793e-02  1.0911e+00  2.0708e-02  1.2776e-02  4.3766e-03  0:02:16 1847
   154  2.0612e-02  4.9820e-03  1.4916e-02  1.1243e+00  2.0593e-02  1.2692e-02  4.3784e-03  0:01:49 1846

  iter  continuity  x-velocity  y-velocity  z-velocity      energy           k       omega     time/iter
   155  2.0348e-02  5.1001e-03  1.5078e-02  1.1603e+00  2.0330e-02  1.2595e-02  4.3789e-03  0:01:27 1845
   156  1.9962e-02  5.2067e-03  1.5242e-02  1.1973e+00  1.9945e-02  1.2498e-02  4.3759e-03  0:01:10 1844
   157  1.9385e-02  5.2835e-03  1.5364e-02  1.2247e+00  1.9368e-02  1.2414e-02  4.3560e-03  0:07:04 1843
   158  1.8721e-02  5.3629e-03  1.5502e-02  1.2626e+00  1.8704e-02  1.2344e-02  4.3572e-03  0:05:39 1842
   159  1.7953e-02  5.4135e-03  1.5727e-02  1.3109e+00  1.7937e-02  1.2247e-02  4.3616e-03  0:04:31 1841
   160  1.7066e-02  5.4441e-03  1.6011e-02  1.3661e+00  1.7051e-02  1.2151e-02  4.3544e-03  0:03:37 1840
   161  1.6060e-02  5.4467e-03  1.6349e-02  1.4290e+00  1.6046e-02  1.2063e-02  4.3519e-03  0:02:53 1839
   162  1.5002e-02  5.4614e-03  1.6779e-02  1.5111e+00  1.4989e-02  1.1992e-02  4.3568e-03  0:02:19 1838
   163  1.3893e-02  5.4367e-03  1.7283e-02  1.6066e+00  1.3881e-02  1.1934e-02  4.3482e-03  0:01:51 1837
   164  1.2798e-02  5.3940e-03  1.7855e-02  1.7218e+00  1.2788e-02  1.1902e-02  4.3202e-03  0:01:29 1836
   165  1.1767e-02  5.3619e-03  1.8487e-02  1.8485e+00  1.1759e-02  1.1817e-02  4.3003e-03  0:01:11 1835

  iter  continuity  x-velocity  y-velocity  z-velocity      energy           k       omega     time/iter
   166  1.0842e-02  5.3016e-03  1.9185e-02  1.9924e+00  1.0836e-02  1.1721e-02  4.2709e-03  0:00:57 1834
   167  1.0036e-02  5.1918e-03  1.9868e-02  2.1486e+00  1.0032e-02  1.1609e-02  4.2554e-03  0:06:52 1833
   168  9.3362e-03  5.0943e-03  2.0458e-02  2.3127e+00  9.3334e-03  1.1529e-02  4.2334e-03  0:05:29 1832
   169  8.8410e-03  5.0022e-03  2.1020e-02  2.4866e+00  8.8397e-03  1.1464e-02  4.1841e-03  0:04:23 1831
   170  8.4578e-03  4.8825e-03  2.1479e-02  2.6564e+00  8.4576e-03  1.1400e-02  4.1348e-03  0:03:31 1830
   171  8.2047e-03  4.7190e-03  2.1835e-02  2.8316e+00  8.2052e-03  1.1287e-02  4.0683e-03  0:02:48 1829
   172  8.0702e-03  4.5352e-03  2.2019e-02  3.0008e+00  8.0705e-03  1.1105e-02  4.0047e-03  0:02:15 1828
   173  8.0541e-03  4.3828e-03  2.2028e-02  3.1570e+00  8.0538e-03  1.0990e-02  3.9592e-03  0:01:48 1827
   174  8.1332e-03  4.2671e-03  2.1899e-02  3.2973e+00  8.1323e-03  1.0873e-02  3.9161e-03  0:01:26 1826
   175  8.2886e-03  4.2203e-03  2.1620e-02  3.4232e+00  8.2868e-03  1.0737e-02  3.8650e-03  0:01:09 1825
   176  8.4653e-03  4.2110e-03  2.1262e-02  3.5308e+00  8.4626e-03  1.0587e-02  3.8068e-03  0:07:00 1824

  iter  continuity  x-velocity  y-velocity  z-velocity      energy           k       omega     time/iter
   177  8.6378e-03  4.2254e-03  2.0828e-02  3.6202e+00  8.6341e-03  1.0416e-02  3.7521e-03  0:05:36 1823
   178  8.8005e-03  4.2473e-03  2.0333e-02  3.6899e+00  8.7955e-03  1.0247e-02  3.6803e-03  0:04:28 1822
   179  8.9749e-03  4.2715e-03  1.9825e-02  3.7367e+00  8.9684e-03  1.0061e-02  3.6101e-03  0:03:35 1821
   180  9.0668e-03  4.2966e-03  1.9300e-02  3.7646e+00  9.0590e-03  9.9007e-03  3.5401e-03  0:02:52 1820
   181  9.0816e-03  4.3219e-03  1.8801e-02  3.7757e+00  9.0727e-03  9.7311e-03  3.4766e-03  0:02:17 1819
   182  9.2080e-03  4.3776e-03  1.8303e-02  3.7689e+00  9.1984e-03  9.5617e-03  3.4050e-03  0:01:50 1818
   183  9.4376e-03  4.4707e-03  1.7809e-02  3.7447e+00  9.4274e-03  9.3942e-03  3.3355e-03  0:01:28 1817
   184  9.7481e-03  4.5744e-03  1.7314e-02  3.7090e+00  9.7372e-03  9.2334e-03  3.2666e-03  0:01:10 1816
   185  1.0238e-02  4.6864e-03  1.6832e-02  3.6575e+00  1.0226e-02  9.0917e-03  3.1959e-03  0:06:59 1815
   186  1.0894e-02  4.8102e-03  1.6372e-02  3.5962e+00  1.0882e-02  8.9653e-03  3.1299e-03  0:05:35 1814
   187  1.1280e-02  4.9491e-03  1.5939e-02  3.5268e+00  1.1267e-02  8.8520e-03  3.0617e-03  0:04:28 1813

  iter  continuity  x-velocity  y-velocity  z-velocity      energy           k       omega     time/iter
   188  1.1394e-02  5.0773e-03  1.5522e-02  3.4477e+00  1.1380e-02  8.7458e-03  3.0047e-03  0:03:34 1812
   189  1.1435e-02  5.1915e-03  1.5132e-02  3.3559e+00  1.1420e-02  8.6402e-03  2.9457e-03  0:02:51 1811
   190  1.1525e-02  5.3536e-03  1.4779e-02  3.2589e+00  1.1509e-02  8.5455e-03  2.8893e-03  0:02:17 1810
   191  1.1664e-02  5.5250e-03  1.4432e-02  3.1512e+00  1.1647e-02  8.4629e-03  2.8371e-03  0:01:49 1809
   192  1.1896e-02  5.6926e-03  1.4103e-02  3.0470e+00  1.1877e-02  8.3761e-03  2.7887e-03  0:01:28 1808
   193  1.2185e-02  5.8578e-03  1.3809e-02  2.9476e+00  1.2164e-02  8.2993e-03  2.7457e-03  0:01:10 1807
   194  1.2516e-02  6.0134e-03  1.3554e-02  2.8650e+00  1.2494e-02  8.2276e-03  2.7125e-03  0:00:56 1806
   195  1.2830e-02  6.1509e-03  1.3325e-02  2.8005e+00  1.2805e-02  8.1590e-03  2.6836e-03  0:06:46 1805
   196  1.3145e-02  6.2812e-03  1.3107e-02  2.7570e+00  1.3120e-02  8.0959e-03  2.6767e-03  0:05:24 1804
   197  1.3518e-02  6.4019e-03  1.2889e-02  2.7291e+00  1.3490e-02  8.0178e-03  2.6759e-03  0:04:19 1803
   198  1.3623e-02  6.3587e-03  1.2749e-02  2.7118e+00  1.3594e-02  7.9284e-03  2.6685e-03  0:03:27 1802

  iter  continuity  x-velocity  y-velocity  z-velocity      energy           k       omega     time/iter
   199  1.4170e-02  6.3979e-03  1.2511e-02  2.7302e+00  1.4140e-02  7.8426e-03  2.6822e-03  0:02:46 1801
   200  1.4718e-02  6.4187e-03  1.2284e-02  2.7502e+00  1.4686e-02  7.7586e-03  2.7061e-03  0:02:13 1800
   201  1.4790e-02  6.3713e-03  1.2097e-02  2.7719e+00  1.4756e-02  7.6805e-03  2.7266e-03  0:01:46 1799
   202  1.5068e-02  6.2944e-03  1.1883e-02  2.8189e+00  1.5033e-02  7.6018e-03  2.7358e-03  0:01:25 1798
   203  1.5486e-02  6.2457e-03  1.1655e-02  2.8603e+00  1.5450e-02  7.5255e-03  2.7354e-03  0:01:08 1797
   204  1.5751e-02  6.1175e-03  1.1476e-02  2.9012e+00  1.5714e-02  7.4586e-03  2.7305e-03  0:06:53 1796
   205  1.6112e-02  6.0071e-03  1.1295e-02  2.9324e+00  1.6074e-02  7.3982e-03  2.7273e-03  0:05:31 1795
   206  1.6474e-02  5.8839e-03  1.1103e-02  2.9654e+00  1.6435e-02  7.3439e-03  2.7259e-03  0:04:24 1794
   207  1.6859e-02  5.7603e-03  1.0897e-02  2.9984e+00  1.6819e-02  7.2991e-03  2.7101e-03  0:03:31 1793
   208  1.7188e-02  5.6711e-03  1.0676e-02  3.0252e+00  1.7149e-02  7.2614e-03  2.6765e-03  0:02:49 1792
   209  1.7518e-02  5.5765e-03  1.0469e-02  3.0519e+00  1.7478e-02  7.2200e-03  2.6454e-03  0:02:15 1791

  iter  continuity  x-velocity  y-velocity  z-velocity      energy           k       omega     time/iter
   210  1.7768e-02  5.4761e-03  1.0271e-02  3.0773e+00  1.7728e-02  7.1790e-03  2.6377e-03  0:01:48 1790
   211  1.7951e-02  5.3648e-03  1.0074e-02  3.0988e+00  1.7911e-02  7.1417e-03  2.6385e-03  0:01:26 1789
   212  1.8052e-02  5.2471e-03  9.8815e-03  3.1187e+00  1.8012e-02  7.1107e-03  2.6400e-03  0:01:09 1788
   213  1.8180e-02  5.1332e-03  9.7037e-03  3.1418e+00  1.8139e-02  7.0790e-03  2.6078e-03  0:06:53 1787
   214  1.8137e-02  5.0169e-03  9.5294e-03  3.1805e+00  1.8096e-02  7.0244e-03  2.6120e-03  0:05:30 1786
   215  1.8108e-02  4.9154e-03  9.3677e-03  3.2184e+00  1.8066e-02  6.9817e-03  2.5908e-03  0:04:24 1785
   216  1.7968e-02  4.8177e-03  9.2153e-03  3.2476e+00  1.7925e-02  6.9303e-03  2.5617e-03  0:03:31 1784
   217  1.7673e-02  4.7052e-03  9.0420e-03  3.2804e+00  1.7631e-02  6.8720e-03  2.5516e-03  0:02:49 1783
   218  1.7429e-02  4.5839e-03  8.8777e-03  3.3035e+00  1.7387e-02  6.8227e-03  2.5281e-03  0:02:15 1782
   219  1.6991e-02  4.4361e-03  8.7272e-03  3.4033e+00  1.6950e-02  6.7800e-03  2.5072e-03  0:01:48 1781
   220  1.6398e-02  4.2772e-03  8.5599e-03  3.4377e+00  1.6358e-02  6.7513e-03  2.4854e-03  0:01:26 1780

  iter  continuity  x-velocity  y-velocity  z-velocity      energy           k       omega     time/iter
   221  1.5848e-02  4.1204e-03  8.4077e-03  3.4736e+00  1.5809e-02  6.7348e-03  2.4556e-03  0:01:09 1779
   222  1.5116e-02  3.9939e-03  8.2745e-03  3.4819e+00  1.5078e-02  6.7301e-03  2.4306e-03  0:06:51 1778
   223  1.4258e-02  3.8894e-03  8.1387e-03  3.4997e+00  1.4221e-02  6.7304e-03  2.4188e-03  0:05:28 1777
   224  1.3390e-02  3.8087e-03  8.0102e-03  3.5512e+00  1.3355e-02  6.7270e-03  2.3942e-03  0:04:23 1776
   225  1.2480e-02  3.7537e-03  7.9183e-03  3.5903e+00  1.2448e-02  6.7162e-03  2.3852e-03  0:03:30 1775
   226  1.1418e-02  3.7025e-03  7.8329e-03  3.6477e+00  1.1388e-02  6.7020e-03  2.3757e-03  0:02:48 1774
   227  1.0323e-02  3.6411e-03  7.7506e-03  3.6954e+00  1.0295e-02  6.6808e-03  2.3560e-03  0:02:14 1773
   228  9.3250e-03  3.5752e-03  7.6853e-03  3.7203e+00  9.2996e-03  6.6454e-03  2.3487e-03  0:01:47 1772
   229  8.4401e-03  3.5127e-03  7.6538e-03  3.7415e+00  8.4168e-03  6.6105e-03  2.3401e-03  0:01:26 1771
   230  7.6750e-03  3.4587e-03  7.6298e-03  3.7819e+00  7.6537e-03  6.5765e-03  2.3210e-03  0:01:09 1770
   231  7.0396e-03  3.3983e-03  7.6073e-03  3.8263e+00  7.0196e-03  6.5363e-03  2.3112e-03  0:06:49 1769

  iter  continuity  x-velocity  y-velocity  z-velocity      energy           k       omega     time/iter
   232  6.5101e-03  3.3528e-03  7.5920e-03  3.8940e+00  6.4910e-03  6.5010e-03  2.3081e-03  0:05:27 1768
   233  6.0194e-03  3.3201e-03  7.5910e-03  3.9655e+00  6.0010e-03  6.4623e-03  2.2962e-03  0:04:21 1767
   234  5.5319e-03  3.3062e-03  7.5994e-03  4.0427e+00  5.5139e-03  6.4344e-03  2.2815e-03  0:03:29 1766
   235  5.0819e-03  3.2976e-03  7.6080e-03  4.1094e+00  5.0640e-03  6.4127e-03  2.2701e-03  0:02:47 1765
   236  4.7027e-03  3.2975e-03  7.6130e-03  4.1972e+00  4.6848e-03  6.4063e-03  2.2581e-03  0:02:14 1764
   237  4.4065e-03  3.3116e-03  7.6134e-03  4.1942e+00  4.3885e-03  6.3994e-03  2.2488e-03  0:01:47 1763
   238  4.2501e-03  3.3480e-03  7.6219e-03  4.2438e+00  4.2320e-03  6.3851e-03  2.2440e-03  0:01:25 1762
   239  4.2984e-03  3.3752e-03  7.6547e-03  4.3165e+00  4.2803e-03  6.3744e-03  2.2391e-03  0:07:00 1761
   240  4.5234e-03  3.3969e-03  7.6972e-03  4.3684e+00  4.5056e-03  6.3616e-03  2.2288e-03  0:05:36 1760
   241  4.8143e-03  3.4117e-03  7.7454e-03  4.4276e+00  4.7967e-03  6.3559e-03  2.2246e-03  0:04:29 1759
   242  5.2101e-03  3.4141e-03  7.7909e-03  4.5086e+00  5.1925e-03  6.3503e-03  2.2285e-03  0:03:35 1758

  iter  continuity  x-velocity  y-velocity  z-velocity      energy           k       omega     time/iter
   243  5.5990e-03  3.4083e-03  7.8333e-03  4.5801e+00  5.5814e-03  6.3503e-03  2.2339e-03  0:02:52 1757
   244  5.8826e-03  3.3946e-03  7.8688e-03  4.6333e+00  5.8650e-03  6.3576e-03  2.2514e-03  0:02:17 1756
   245  6.0743e-03  3.3688e-03  7.8991e-03  4.6402e+00  6.0568e-03  6.3640e-03  2.2549e-03  0:01:50 1755
   246  6.2113e-03  3.3424e-03  7.9313e-03  4.6368e+00  6.1941e-03  6.3658e-03  2.2547e-03  0:01:28 1754
   247  6.3270e-03  3.3089e-03  7.9623e-03  4.6445e+00  6.3103e-03  6.3679e-03  2.2589e-03  0:01:10 1753
   248  6.4115e-03  3.2535e-03  7.9711e-03  4.6749e+00  6.3952e-03  6.3694e-03  2.2667e-03  0:06:47 1752
   249  6.4705e-03  3.2046e-03  7.9731e-03  4.6928e+00  6.4546e-03  6.3740e-03  2.2671e-03  0:05:25 1751
   250  6.5135e-03  3.1611e-03  7.9693e-03  4.6948e+00  6.4980e-03  6.3723e-03  2.2790e-03  0:04:20 1750
   251  6.5474e-03  3.1179e-03  7.9658e-03  4.7646e+00  6.5324e-03  6.3697e-03  2.2924e-03  0:03:28 1749
   252  6.5976e-03  3.0821e-03  7.9886e-03  4.8587e+00  6.5830e-03  6.3729e-03  2.3044e-03  0:02:46 1748
   253  6.6629e-03  3.0442e-03  8.0218e-03  4.9626e+00  6.6487e-03  6.3735e-03  2.3160e-03  0:02:13 1747

  iter  continuity  x-velocity  y-velocity  z-velocity      energy           k       omega     time/iter
   254  6.7092e-03  2.9936e-03  8.0430e-03  4.9343e+00  6.6953e-03  6.3753e-03  2.3118e-03  0:01:46 1746
   255  6.7311e-03  2.9530e-03  8.0715e-03  4.8157e+00  6.7175e-03  6.3754e-03  2.3239e-03  0:01:25 1745
   256  6.7143e-03  2.9065e-03  8.1038e-03  4.7680e+00  6.7011e-03  6.3767e-03  2.3292e-03  0:01:08 1744
   257  6.6579e-03  2.8592e-03  8.1399e-03  4.7603e+00  6.6452e-03  6.3787e-03  2.3396e-03  0:06:43 1743
   258  6.5549e-03  2.8166e-03  8.1805e-03  4.7599e+00  6.5427e-03  6.3754e-03  2.3438e-03  0:05:22 1742
   259  6.4021e-03  2.7755e-03  8.2182e-03  4.8086e+00  6.3903e-03  6.3742e-03  2.3478e-03  0:04:18 1741
   260  6.1823e-03  2.7338e-03  8.2569e-03  4.8588e+00  6.1710e-03  6.3737e-03  2.3496e-03  0:03:26 1740
   261  5.8989e-03  2.6952e-03  8.3059e-03  4.9096e+00  5.8881e-03  6.3714e-03  2.3489e-03  0:02:45 1739
   262  5.5694e-03  2.6651e-03  8.3507e-03  4.9677e+00  5.5592e-03  6.3678e-03  2.3409e-03  0:02:12 1738
   263  5.1972e-03  2.6460e-03  8.3819e-03  4.9779e+00  5.1876e-03  6.3612e-03  2.3349e-03  0:01:45 1737
   264  4.8052e-03  2.6288e-03  8.3971e-03  5.0015e+00  4.7962e-03  6.3536e-03  2.3283e-03  0:01:24 1736

  iter  continuity  x-velocity  y-velocity  z-velocity      energy           k       omega     time/iter
   265  4.4105e-03  2.6037e-03  8.3951e-03  5.0555e+00  4.4019e-03  6.3533e-03  2.3394e-03  0:01:07 1735
   266  4.0320e-03  2.5858e-03  8.3988e-03  5.0684e+00  4.0238e-03  6.3442e-03  2.3352e-03  0:06:41 1734
   267  3.7152e-03  2.5657e-03  8.4079e-03  5.0874e+00  3.7071e-03  6.3337e-03  2.3314e-03  0:05:20 1733
   268  3.5317e-03  2.5413e-03  8.4232e-03  5.1019e+00  3.5238e-03  6.3171e-03  2.3302e-03  0:04:16 1732
   269  3.5426e-03  2.5154e-03  8.4449e-03  5.1199e+00  3.5348e-03  6.2945e-03  2.3224e-03  0:03:25 1731
   270  3.7973e-03  2.4923e-03  8.4754e-03  5.0952e+00  3.7895e-03  6.2708e-03  2.3187e-03  0:02:44 1730
   271  4.2681e-03  2.4538e-03  8.5056e-03  5.0909e+00  4.2601e-03  6.2407e-03  2.3118e-03  0:02:11 1729
   272  4.9573e-03  2.4228e-03  8.5500e-03  5.0739e+00  4.9489e-03  6.2256e-03  2.3126e-03  0:01:45 1728
   273  5.7640e-03  2.3959e-03  8.6024e-03  5.1099e+00  5.7551e-03  6.2206e-03  2.3074e-03  0:01:24 1727
   274  6.5743e-03  2.3667e-03  8.6635e-03  5.1475e+00  6.5649e-03  6.2221e-03  2.3076e-03  0:01:07 1726
   275  7.4125e-03  2.3377e-03  8.7242e-03  5.2269e+00  7.4024e-03  6.2195e-03  2.2984e-03  0:00:53 1725

  iter  continuity  x-velocity  y-velocity  z-velocity      energy           k       omega     time/iter
   276  8.3564e-03  2.3125e-03  8.7924e-03  5.2927e+00  8.3456e-03  6.2169e-03  2.2877e-03  0:06:28 1724
   277  9.3767e-03  2.2830e-03  8.8619e-03  5.3369e+00  9.3652e-03  6.2140e-03  2.2820e-03  0:05:10 1723
   278  1.0474e-02  2.2586e-03  8.9469e-03  5.4711e+00  1.0462e-02  6.2148e-03  2.2714e-03  0:04:08 1722
   279  1.1675e-02  2.2329e-03  9.0372e-03  5.5638e+00  1.1662e-02  6.2185e-03  2.2680e-03  0:03:18 1721
   280  1.2466e-02  2.2080e-03  9.1257e-03  5.6424e+00  1.2452e-02  6.2229e-03  2.2607e-03  0:02:38 1720
   281  1.3070e-02  2.1791e-03  9.1971e-03  5.6981e+00  1.3056e-02  6.2214e-03  2.2576e-03  0:02:07 1719
   282  1.3503e-02  2.1583e-03  9.2473e-03  5.7324e+00  1.3489e-02  6.2163e-03  2.2512e-03  0:01:41 1718
   283  1.3690e-02  2.1418e-03  9.2911e-03  5.7477e+00  1.3676e-02  6.2239e-03  2.2462e-03  0:01:21 1717
   284  1.3653e-02  2.1216e-03  9.3207e-03  5.7160e+00  1.3639e-02  6.2312e-03  2.2279e-03  0:01:05 1716
   285  1.3472e-02  2.1033e-03  9.3344e-03  5.6621e+00  1.3458e-02  6.2328e-03  2.2210e-03  0:00:52 1715
   286  1.3183e-02  2.0927e-03  9.3304e-03  5.5242e+00  1.3170e-02  6.2291e-03  2.2162e-03  0:06:24 1714

  iter  continuity  x-velocity  y-velocity  z-velocity      energy           k       omega     time/iter
   287  1.2813e-02  2.0870e-03  9.3107e-03  5.3733e+00  1.2800e-02  6.2192e-03  2.2091e-03  0:05:07 1713
   288  1.2396e-02  2.0808e-03  9.2771e-03  5.2144e+00  1.2384e-02  6.2092e-03  2.2005e-03  0:04:06 1712
   289  1.1982e-02  2.0729e-03  9.2370e-03  5.0706e+00  1.1970e-02  6.2004e-03  2.1866e-03  0:03:16 1711
   290  1.1532e-02  2.0627e-03  9.1957e-03  4.9457e+00  1.1520e-02  6.1944e-03  2.1644e-03  0:02:37 1710
   291  1.1014e-02  2.0508e-03  9.1502e-03  4.8530e+00  1.1003e-02  6.1882e-03  2.1443e-03  0:02:06 1709
   292  1.0493e-02  2.0422e-03  9.1008e-03  4.7891e+00  1.0483e-02  6.1777e-03  2.1246e-03  0:01:40 1708
   293  9.9935e-03  2.0355e-03  9.0486e-03  4.7652e+00  9.9829e-03  6.1586e-03  2.1046e-03  0:01:20 1707
   294  9.4885e-03  2.0316e-03  8.9940e-03  4.7381e+00  9.4780e-03  6.1409e-03  2.0871e-03  0:01:04 1706
   295  9.0073e-03  2.0294e-03  8.9393e-03  4.7373e+00  8.9969e-03  6.1236e-03  2.0683e-03  0:06:32 1705
   296  8.5640e-03  2.0320e-03  8.8851e-03  4.7560e+00  8.5538e-03  6.1039e-03  2.0504e-03  0:05:14 1704
   297  8.1667e-03  2.0373e-03  8.8344e-03  4.7765e+00  8.1565e-03  6.0783e-03  2.0298e-03  0:04:11 1703

  iter  continuity  x-velocity  y-velocity  z-velocity      energy           k       omega     time/iter
   298  7.8337e-03  2.0442e-03  8.7837e-03  4.7923e+00  7.8235e-03  6.0583e-03  2.0176e-03  0:03:21 1702
   299  7.4977e-03  2.0522e-03  8.7306e-03  4.8009e+00  7.4875e-03  6.0398e-03  2.0022e-03  0:02:40 1701
   300  7.1964e-03  2.0630e-03  8.6804e-03  4.8339e+00  7.1862e-03  6.0170e-03  1.9896e-03  0:02:08 1700
   301  6.7289e-03  2.0767e-03  8.6337e-03  4.8628e+00  6.7186e-03  5.9904e-03  1.9793e-03  0:01:42 1699
   302  6.2893e-03  2.0848e-03  8.5844e-03  4.8813e+00  6.2789e-03  5.9629e-03  1.9695e-03  0:01:22 1698
   303  5.8496e-03  2.0911e-03  8.5403e-03  4.9541e+00  5.8391e-03  5.9318e-03  1.9580e-03  0:01:06 1697
   304  5.4465e-03  2.0954e-03  8.4949e-03  4.9815e+00  5.4357e-03  5.8903e-03  1.9504e-03  0:00:52 1696
   305  5.0813e-03  2.0933e-03  8.4398e-03  4.9635e+00  5.0704e-03  5.8535e-03  1.9414e-03  0:06:21 1695
   306  4.7256e-03  2.0860e-03  8.3790e-03  4.9258e+00  4.7144e-03  5.8185e-03  1.9389e-03  0:05:05 1694
   307  4.3562e-03  2.0759e-03  8.3164e-03  4.8893e+00  4.3447e-03  5.7823e-03  1.9342e-03  0:04:03 1693
   308  3.9718e-03  2.0652e-03  8.2520e-03  4.8679e+00  3.9598e-03  5.7430e-03  1.9247e-03  0:03:15 1692

  iter  continuity  x-velocity  y-velocity  z-velocity      energy           k       omega     time/iter
   309  3.5982e-03  2.0608e-03  8.1867e-03  4.8242e+00  3.5856e-03  5.7057e-03  1.9224e-03  0:02:36 1691
   310  3.2523e-03  2.0508e-03  8.1175e-03  4.7554e+00  3.2391e-03  5.6791e-03  1.9200e-03  0:02:04 1690
   311  2.9494e-03  2.0392e-03  8.0439e-03  4.6752e+00  2.9355e-03  5.6579e-03  1.9207e-03  0:01:39 1689
   312  2.6995e-03  2.0280e-03  7.9681e-03  4.5957e+00  2.6850e-03  5.6426e-03  1.9148e-03  0:01:20 1688
   313  2.5125e-03  2.0164e-03  7.8906e-03  4.5290e+00  2.4977e-03  5.6416e-03  1.9041e-03  0:01:04 1687
   314  2.3859e-03  2.0071e-03  7.8123e-03  4.4672e+00  2.3709e-03  5.6318e-03  1.8998e-03  0:06:28 1686
   315  2.3075e-03  2.0016e-03  7.7330e-03  4.3892e+00  2.2926e-03  5.6199e-03  1.8920e-03  0:05:10 1685
   316  2.2832e-03  1.9969e-03  7.6558e-03  4.3221e+00  2.2688e-03  5.6080e-03  1.8861e-03  0:04:08 1684
   317  2.2970e-03  1.9890e-03  7.5802e-03  4.2631e+00  2.2832e-03  5.6015e-03  1.8831e-03  0:03:18 1683
   318  2.3287e-03  1.9820e-03  7.5065e-03  4.2099e+00  2.3157e-03  5.6009e-03  1.8779e-03  0:02:39 1682
   319  2.3377e-03  1.9769e-03  7.4323e-03  4.1615e+00  2.3253e-03  5.6004e-03  1.8711e-03  0:02:07 1681

  iter  continuity  x-velocity  y-velocity  z-velocity      energy           k       omega     time/iter
   320  2.3506e-03  1.9733e-03  7.3588e-03  4.1188e+00  2.3388e-03  5.6035e-03  1.8628e-03  0:01:41 1680
   321  2.3654e-03  1.9711e-03  7.2867e-03  4.0735e+00  2.3542e-03  5.6103e-03  1.8567e-03  0:01:21 1679
   322  2.3814e-03  1.9678e-03  7.2135e-03  4.0232e+00  2.3708e-03  5.6195e-03  1.8528e-03  0:01:05 1678
   323  2.3813e-03  1.9630e-03  7.1398e-03  3.9730e+00  2.3713e-03  5.6361e-03  1.8498e-03  0:06:27 1677
   324  2.3812e-03  1.9577e-03  7.0648e-03  3.9280e+00  2.3717e-03  5.6501e-03  1.8488e-03  0:05:10 1676
   325  2.3836e-03  1.9506e-03  6.9881e-03  3.8857e+00  2.3746e-03  5.6615e-03  1.8427e-03  0:04:08 1675
   326  2.3776e-03  1.9386e-03  6.9059e-03  3.8414e+00  2.3692e-03  5.6736e-03  1.8397e-03  0:03:18 1674
   327  2.3353e-03  1.9289e-03  6.8267e-03  3.8172e+00  2.3274e-03  5.6895e-03  1.8375e-03  0:02:38 1673
   328  2.3520e-03  1.9213e-03  6.7497e-03  3.8000e+00  2.3447e-03  5.7102e-03  1.8323e-03  0:02:07 1672
   329  2.3965e-03  1.9143e-03  6.6753e-03  3.7613e+00  2.3897e-03  5.7354e-03  1.8302e-03  0:01:41 1671
   330  2.4545e-03  1.9075e-03  6.6016e-03  3.7083e+00  2.4481e-03  5.7552e-03  1.8306e-03  0:01:21 1670

  iter  continuity  x-velocity  y-velocity  z-velocity      energy           k       omega     time/iter
   331  2.5419e-03  1.9010e-03  6.5284e-03  3.6524e+00  2.5359e-03  5.7688e-03  1.8332e-03  0:01:05 1669
   332  2.6724e-03  1.8955e-03  6.4577e-03  3.5828e+00  2.6669e-03  5.7700e-03  1.8325e-03  0:06:25 1668
   333  2.8324e-03  1.8914e-03  6.3899e-03  3.5219e+00  2.8272e-03  5.7642e-03  1.8327e-03  0:05:08 1667
   334  3.0295e-03  1.8880e-03  6.3256e-03  3.4624e+00  3.0246e-03  5.7587e-03  1.8357e-03  0:04:06 1666
   335  3.2561e-03  1.8857e-03  6.2633e-03  3.4095e+00  3.2515e-03  5.7484e-03  1.8399e-03  0:03:17 1665
   336  3.5039e-03  1.8841e-03  6.2042e-03  3.3609e+00  3.4994e-03  5.7434e-03  1.8407e-03  0:02:37 1664
   337  3.7700e-03  1.8840e-03  6.1493e-03  3.3155e+00  3.7656e-03  5.7276e-03  1.8393e-03  0:02:06 1663
   338  4.0629e-03  1.8843e-03  6.0976e-03  3.2692e+00  4.0586e-03  5.7066e-03  1.8382e-03  0:01:41 1662
   339  4.3597e-03  1.8869e-03  6.0512e-03  3.2195e+00  4.3554e-03  5.6901e-03  1.8365e-03  0:01:20 1661
   340  4.6561e-03  1.8915e-03  6.0104e-03  3.1707e+00  4.6518e-03  5.6678e-03  1.8353e-03  0:01:04 1660
   341  4.9431e-03  1.8986e-03  5.9756e-03  3.1223e+00  4.9388e-03  5.6440e-03  1.8305e-03  0:06:23 1659

  iter  continuity  x-velocity  y-velocity  z-velocity      energy           k       omega     time/iter
   342  5.2299e-03  1.9063e-03  5.9441e-03  3.0838e+00  5.2255e-03  5.6279e-03  1.8240e-03  0:05:06 1658
   343  5.5223e-03  1.9247e-03  5.9244e-03  3.0356e+00  5.5179e-03  5.6127e-03  1.8175e-03  0:04:05 1657
   344  5.8010e-03  1.9421e-03  5.9115e-03  2.9864e+00  5.7965e-03  5.5991e-03  1.8115e-03  0:03:16 1656
   345  6.0560e-03  1.9572e-03  5.9068e-03  2.9450e+00  6.0515e-03  5.5926e-03  1.8088e-03  0:02:37 1655
   346  6.2914e-03  1.9741e-03  5.9106e-03  2.9111e+00  6.2868e-03  5.5861e-03  1.8037e-03  0:02:05 1654
   347  6.6958e-03  2.1094e-03  6.2004e-03  2.8804e+00  6.6913e-03  5.5887e-03  1.7939e-03  0:01:40 1653
   348  6.6357e-03  1.9990e-03  6.0598e-03  2.8628e+00  6.6310e-03  5.5973e-03  1.7876e-03  0:01:20 1652
   349  6.8133e-03  1.9987e-03  6.0404e-03  2.8453e+00  6.8086e-03  5.6032e-03  1.7809e-03  0:06:34 1651
   350  6.9943e-03  2.0203e-03  6.0496e-03  2.8250e+00  6.9895e-03  5.6098e-03  1.7768e-03  0:05:15 1650
   351  7.1451e-03  2.0490e-03  6.0711e-03  2.8027e+00  7.1402e-03  5.6042e-03  1.7761e-03  0:04:12 1649
   352  7.2724e-03  2.0787e-03  6.0997e-03  2.7747e+00  7.2675e-03  5.6118e-03  1.7762e-03  0:03:21 1648

  iter  continuity  x-velocity  y-velocity  z-velocity      energy           k       omega     time/iter
   353  7.3927e-03  2.1082e-03  6.1359e-03  2.7455e+00  7.3877e-03  5.6173e-03  1.7749e-03  0:02:41 1647
   354  7.4997e-03  2.1353e-03  6.1789e-03  2.7193e+00  7.4948e-03  5.6275e-03  1.7749e-03  0:02:09 1646
   355  7.5928e-03  2.1573e-03  6.2277e-03  2.6956e+00  7.5878e-03  5.6460e-03  1.7750e-03  0:01:43 1645
   356  7.6721e-03  2.1759e-03  6.2789e-03  2.6743e+00  7.6671e-03  5.6714e-03  1.7767e-03  0:01:22 1644
   357  7.7391e-03  2.1928e-03  6.3331e-03  2.6481e+00  7.7342e-03  5.6952e-03  1.7773e-03  0:01:06 1643
   358  7.7956e-03  2.2090e-03  6.3900e-03  2.6173e+00  7.7907e-03  5.7155e-03  1.7776e-03  0:06:21 1642
   359  7.8407e-03  2.2244e-03  6.4475e-03  2.5831e+00  7.8359e-03  5.7369e-03  1.7774e-03  0:05:05 1641
   360  7.8714e-03  2.2398e-03  6.5049e-03  2.5451e+00  7.8667e-03  5.7589e-03  1.7782e-03  0:04:04 1640
   361  7.8875e-03  2.2561e-03  6.5622e-03  2.5098e+00  7.8828e-03  5.7786e-03  1.7767e-03  0:03:15 1639
   362  7.8913e-03  2.2740e-03  6.6205e-03  2.4734e+00  7.8866e-03  5.7991e-03  1.7733e-03  0:02:36 1638
   363  7.8862e-03  2.2931e-03  6.6796e-03  2.4398e+00  7.8816e-03  5.8322e-03  1.7718e-03  0:02:04 1637

  iter  continuity  x-velocity  y-velocity  z-velocity      energy           k       omega     time/iter
   364  7.8616e-03  2.3143e-03  6.7384e-03  2.4094e+00  7.8571e-03  5.8597e-03  1.7710e-03  0:01:40 1636
   365  7.8015e-03  2.3378e-03  6.7975e-03  2.3785e+00  7.7970e-03  5.8833e-03  1.7699e-03  0:01:20 1635
   366  7.7105e-03  2.3625e-03  6.8564e-03  2.3482e+00  7.7060e-03  5.9086e-03  1.7692e-03  0:01:04 1634
   367  7.6253e-03  2.3881e-03  6.9149e-03  2.3169e+00  7.6209e-03  5.9423e-03  1.7727e-03  0:00:51 1633
   368  7.4962e-03  2.4141e-03  6.9722e-03  2.2848e+00  7.4918e-03  5.9744e-03  1.7786e-03  0:06:07 1632
   369  7.3473e-03  2.4407e-03  7.0281e-03  2.2527e+00  7.3429e-03  6.0097e-03  1.7845e-03  0:04:53 1631
   370  7.1908e-03  2.4678e-03  7.0829e-03  2.2197e+00  7.1864e-03  6.0322e-03  1.7907e-03  0:03:55 1630
   371  7.0257e-03  2.4962e-03  7.1371e-03  2.1904e+00  7.0212e-03  6.0507e-03  1.7964e-03  0:03:08 1629
   372  6.8546e-03  2.5258e-03  7.1900e-03  2.1667e+00  6.8501e-03  6.0714e-03  1.8052e-03  0:02:30 1628
   373  6.6722e-03  2.5567e-03  7.2418e-03  2.1479e+00  6.6677e-03  6.0836e-03  1.8127e-03  0:02:00 1627
   374  6.4767e-03  2.5907e-03  7.2920e-03  2.1328e+00  6.4721e-03  6.0924e-03  1.8160e-03  0:01:36 1626

  iter  continuity  x-velocity  y-velocity  z-velocity      energy           k       omega     time/iter
   375  6.2701e-03  2.6282e-03  7.3405e-03  2.1167e+00  6.2654e-03  6.0936e-03  1.8166e-03  0:01:17 1625
   376  6.0554e-03  2.6698e-03  7.3878e-03  2.1012e+00  6.0506e-03  6.1000e-03  1.8151e-03  0:01:01 1624
   377  5.8339e-03  2.7157e-03  7.4341e-03  2.0919e+00  5.8290e-03  6.1132e-03  1.8158e-03  0:06:14 1623
   378  5.6066e-03  2.7672e-03  7.4773e-03  2.0868e+00  5.6016e-03  6.1291e-03  1.8174e-03  0:04:59 1622
   379  5.3833e-03  2.8219e-03  7.5236e-03  2.0903e+00  5.3782e-03  6.1475e-03  1.8202e-03  0:03:59 1621
   380  5.1552e-03  2.8822e-03  7.5675e-03  2.0977e+00  5.1498e-03  6.1633e-03  1.8217e-03  0:03:11 1620
   381  4.9214e-03  2.9491e-03  7.6070e-03  2.1052e+00  4.9159e-03  6.1777e-03  1.8262e-03  0:02:33 1619
   382  4.6966e-03  3.0220e-03  7.6436e-03  2.1205e+00  4.6909e-03  6.1917e-03  1.8299e-03  0:02:02 1618
   383  4.4908e-03  3.0992e-03  7.6761e-03  2.1484e+00  4.4849e-03  6.2092e-03  1.8349e-03  0:01:38 1617
   384  4.3129e-03  3.1819e-03  7.7070e-03  2.1875e+00  4.3068e-03  6.2270e-03  1.8415e-03  0:01:18 1616
   385  4.1695e-03  3.2705e-03  7.7362e-03  2.2490e+00  4.1633e-03  6.2435e-03  1.8502e-03  0:01:02 1615

  iter  continuity  x-velocity  y-velocity  z-velocity      energy           k       omega     time/iter
   386  4.0689e-03  3.3639e-03  7.7620e-03  2.3229e+00  4.0627e-03  6.2527e-03  1.8592e-03  0:06:13 1614
   387  4.0127e-03  3.4603e-03  7.7829e-03  2.4010e+00  4.0064e-03  6.2649e-03  1.8693e-03  0:04:58 1613
   388  3.9971e-03  3.5618e-03  7.8013e-03  2.4904e+00  3.9909e-03  6.2808e-03  1.8777e-03  0:03:58 1612
   389  4.0197e-03  3.6675e-03  7.8170e-03  2.5972e+00  4.0136e-03  6.2964e-03  1.8921e-03  0:03:10 1611
   390  4.0799e-03  3.7712e-03  7.8283e-03  2.7053e+00  4.0740e-03  6.3122e-03  1.9061e-03  0:02:32 1610
   391  4.1754e-03  3.8769e-03  7.8376e-03  2.8133e+00  4.1697e-03  6.3313e-03  1.9196e-03  0:02:02 1609
   392  4.2987e-03  3.9831e-03  7.8458e-03  2.9255e+00  4.2932e-03  6.3503e-03  1.9374e-03  0:01:37 1608
   393  4.4430e-03  4.0858e-03  7.8534e-03  3.0357e+00  4.4378e-03  6.3596e-03  1.9597e-03  0:01:18 1607
   394  4.6036e-03  4.1856e-03  7.8600e-03  3.1492e+00  4.5986e-03  6.3686e-03  1.9832e-03  0:01:02 1606
   395  4.7759e-03  4.2842e-03  7.8644e-03  3.2619e+00  4.7709e-03  6.3812e-03  2.0080e-03  0:00:50 1605
   396  4.9582e-03  4.3824e-03  7.8665e-03  3.3778e+00  4.9534e-03  6.3834e-03  2.0311e-03  0:06:01 1604

  iter  continuity  x-velocity  y-velocity  z-velocity      energy           k       omega     time/iter
   397  5.1453e-03  4.4800e-03  7.8662e-03  3.4861e+00  5.1406e-03  6.3907e-03  2.0487e-03  0:04:48 1603
   398  5.3317e-03  4.5725e-03  7.8645e-03  3.6283e+00  5.3271e-03  6.4153e-03  2.0652e-03  0:03:50 1602
   399  5.5237e-03  4.6656e-03  7.8617e-03  3.7674e+00  5.5192e-03  6.4514e-03  2.0838e-03  0:03:04 1601
   400  5.7174e-03  4.7590e-03  7.8577e-03  3.8972e+00  5.7129e-03  6.4903e-03  2.1015e-03  0:02:27 1600
   401  5.9102e-03  4.8550e-03  7.8518e-03  4.0315e+00  5.9058e-03  6.5363e-03  2.1230e-03  0:01:58 1599
   402  6.1036e-03  4.9534e-03  7.8442e-03  4.1706e+00  6.0992e-03  6.5923e-03  2.1427e-03  0:01:34 1598
   403  6.2969e-03  5.0510e-03  7.8353e-03  4.3051e+00  6.2926e-03  6.6605e-03  2.1618e-03  0:01:15 1597
   404  6.4891e-03  5.1454e-03  7.8247e-03  4.3855e+00  6.4849e-03  6.7151e-03  2.1813e-03  0:01:00 1596
   405  6.6829e-03  5.2378e-03  7.8112e-03  4.4909e+00  6.6788e-03  6.7569e-03  2.2027e-03  0:06:07 1595
   406  6.8799e-03  5.3231e-03  7.7965e-03  4.6113e+00  6.8758e-03  6.8132e-03  2.2242e-03  0:04:54 1594
   407  7.0728e-03  5.4043e-03  7.7804e-03  4.6861e+00  7.0688e-03  6.8919e-03  2.2481e-03  0:03:55 1593

  iter  continuity  x-velocity  y-velocity  z-velocity      energy           k       omega     time/iter
   408  7.2606e-03  5.4859e-03  7.7620e-03  4.7747e+00  7.2567e-03  6.9632e-03  2.2711e-03  0:03:08 1592
   409  7.4447e-03  5.5650e-03  7.7425e-03  4.8777e+00  7.4408e-03  7.0163e-03  2.2918e-03  0:02:30 1591
   410  7.6272e-03  5.6388e-03  7.7233e-03  4.9617e+00  7.6233e-03  7.0516e-03  2.3135e-03  0:02:00 1590
   411  7.8087e-03  5.7071e-03  7.7036e-03  5.0354e+00  7.8049e-03  7.1127e-03  2.3267e-03  0:01:36 1589
   412  7.9898e-03  5.7718e-03  7.6813e-03  5.0672e+00  7.9860e-03  7.1625e-03  2.3419e-03  0:01:17 1588
   413  8.1723e-03  5.8318e-03  7.6593e-03  5.1047e+00  8.1686e-03  7.1926e-03  2.3541e-03  0:06:19 1587
   414  8.3582e-03  5.8882e-03  7.6389e-03  5.1853e+00  8.3546e-03  7.2321e-03  2.3650e-03  0:05:03 1586
   415  8.5446e-03  5.9403e-03  7.6210e-03  5.2856e+00  8.5412e-03  7.2840e-03  2.3792e-03  0:04:02 1585
   416  8.7212e-03  5.9896e-03  7.6041e-03  5.3910e+00  8.7179e-03  7.3354e-03  2.3933e-03  0:03:14 1584
   417  8.8897e-03  6.0350e-03  7.5865e-03  5.4828e+00  8.8865e-03  7.3494e-03  2.4057e-03  0:02:35 1583
   418  9.0580e-03  6.0727e-03  7.5702e-03  5.5242e+00  9.0549e-03  7.3458e-03  2.4192e-03  0:02:04 1582

  iter  continuity  x-velocity  y-velocity  z-velocity      energy           k       omega     time/iter
   419  9.2405e-03  6.1047e-03  7.5556e-03  5.4312e+00  9.2374e-03  7.3763e-03  2.4258e-03  0:01:39 1581
   420  9.4379e-03  6.1302e-03  7.5427e-03  5.2581e+00  9.4349e-03  7.3880e-03  2.4351e-03  0:01:19 1580
   421  9.6070e-03  6.1516e-03  7.5298e-03  5.1116e+00  9.6040e-03  7.3830e-03  2.4362e-03  0:01:03 1579
   422  9.7344e-03  6.1680e-03  7.5172e-03  5.0061e+00  9.7315e-03  7.3656e-03  2.4314e-03  0:00:51 1578
   423  9.8268e-03  6.1819e-03  7.5071e-03  4.9124e+00  9.8239e-03  7.3457e-03  2.4281e-03  0:05:56 1577
   424  9.8404e-03  6.1945e-03  7.4994e-03  4.8122e+00  9.8376e-03  7.3218e-03  2.4247e-03  0:04:44 1576
   425  9.8047e-03  6.2047e-03  7.4943e-03  4.7279e+00  9.8020e-03  7.2799e-03  2.4243e-03  0:03:47 1575
   426  9.7519e-03  6.2110e-03  7.4923e-03  4.6443e+00  9.7492e-03  7.2351e-03  2.4277e-03  0:03:02 1574
   427  9.6631e-03  6.2134e-03  7.4914e-03  4.6112e+00  9.6605e-03  7.2011e-03  2.4332e-03  0:02:25 1573
   428  9.5383e-03  6.2051e-03  7.4894e-03  4.5897e+00  9.5358e-03  7.1523e-03  2.4342e-03  0:01:56 1572
   429  9.4192e-03  6.1983e-03  7.4814e-03  4.5880e+00  9.4166e-03  7.0946e-03  2.4404e-03  0:01:33 1571

  iter  continuity  x-velocity  y-velocity  z-velocity      energy           k       omega     time/iter
   430  9.3235e-03  6.1926e-03  7.4701e-03  4.5890e+00  9.3207e-03  7.0397e-03  2.4449e-03  0:01:14 1570
   431  9.2528e-03  6.1907e-03  7.4582e-03  4.5678e+00  9.2497e-03  6.9853e-03  2.4443e-03  0:00:59 1569
   432  9.2321e-03  6.1765e-03  7.4502e-03  4.5443e+00  9.2288e-03  6.9309e-03  2.4468e-03  0:06:01 1568
   433  9.2132e-03  6.1563e-03  7.4494e-03  4.5260e+00  9.2096e-03  6.8813e-03  2.4465e-03  0:04:49 1567
   434  9.2334e-03  6.1343e-03  7.4512e-03  4.4950e+00  9.2295e-03  6.8190e-03  2.4399e-03  0:03:51 1566
   435  9.2855e-03  6.1122e-03  7.4502e-03  4.3215e+00  9.2811e-03  6.7594e-03  2.4442e-03  0:03:05 1565
   436  9.3879e-03  6.0950e-03  7.4471e-03  4.2230e+00  9.3831e-03  6.7119e-03  2.4510e-03  0:02:28 1564
   437  9.6150e-03  6.0836e-03  7.4441e-03  4.1128e+00  9.6097e-03  6.6743e-03  2.4530e-03  0:07:11 1563
   438  9.9765e-03  6.0799e-03  7.4411e-03  3.9902e+00  9.9706e-03  6.6421e-03  2.4503e-03  0:05:44 1562
   439  1.0432e-02  6.0789e-03  7.4381e-03  3.9140e+00  1.0426e-02  6.6106e-03  2.4463e-03  0:04:35 1561
   440  1.0821e-02  6.0789e-03  7.4348e-03  3.8954e+00  1.0814e-02  6.5802e-03  2.4378e-03  0:03:40 1560

  iter  continuity  x-velocity  y-velocity  z-velocity      energy           k       omega     time/iter
   441  1.1012e-02  6.0782e-03  7.4333e-03  3.8886e+00  1.1005e-02  6.5580e-03  2.4327e-03  0:02:56 1559
   442  1.1149e-02  6.0759e-03  7.4336e-03  3.8911e+00  1.1141e-02  6.5407e-03  2.4241e-03  0:02:21 1558
   443  1.1361e-02  6.0721e-03  7.4355e-03  3.9075e+00  1.1353e-02  6.5198e-03  2.4131e-03  0:01:52 1557
   444  1.1583e-02  6.0665e-03  7.4375e-03  3.9071e+00  1.1575e-02  6.5002e-03  2.3976e-03  0:01:30 1556
   445  1.1747e-02  6.0571e-03  7.4403e-03  3.8982e+00  1.1738e-02  6.4770e-03  2.3742e-03  0:01:12 1555
   446  1.1871e-02  6.0445e-03  7.4436e-03  3.8761e+00  1.1862e-02  6.4474e-03  2.3560e-03  0:06:08 1554
   447  1.1918e-02  6.0291e-03  7.4469e-03  3.8551e+00  1.1909e-02  6.4176e-03  2.3416e-03  0:04:54 1553
   448  1.1927e-02  6.0055e-03  7.4501e-03  3.8568e+00  1.1918e-02  6.3831e-03  2.3233e-03  0:03:55 1552
   449  1.1946e-02  5.9784e-03  7.4537e-03  3.8741e+00  1.1937e-02  6.3408e-03  2.3055e-03  0:03:08 1551
   450  1.1960e-02  5.9543e-03  7.4561e-03  3.9423e+00  1.1951e-02  6.2989e-03  2.2889e-03  0:02:30 1550
   451  1.1942e-02  5.9299e-03  7.4580e-03  3.9301e+00  1.1933e-02  6.2529e-03  2.2778e-03  0:02:00 1549

  iter  continuity  x-velocity  y-velocity  z-velocity      energy           k       omega     time/iter
   452  1.1928e-02  5.9041e-03  7.4610e-03  3.9128e+00  1.1919e-02  6.2039e-03  2.2652e-03  0:01:36 1548
   453  1.1948e-02  5.8764e-03  7.4643e-03  3.8331e+00  1.1940e-02  6.1476e-03  2.2554e-03  0:01:17 1547
   454  1.2054e-02  5.8455e-03  7.4657e-03  3.7431e+00  1.2045e-02  6.0974e-03  2.2515e-03  0:01:01 1546
   455  1.2264e-02  5.8082e-03  7.4655e-03  3.6967e+00  1.2255e-02  6.0434e-03  2.2467e-03  0:05:58 1545
   456  1.2530e-02  5.7668e-03  7.4668e-03  3.6955e+00  1.2521e-02  5.9949e-03  2.2407e-03  0:04:46 1544
   457  1.2813e-02  5.7223e-03  7.4700e-03  3.7107e+00  1.2804e-02  5.9515e-03  2.2368e-03  0:03:49 1543
   458  1.3112e-02  5.6635e-03  7.4677e-03  3.7557e+00  1.3103e-02  5.8960e-03  2.2270e-03  0:03:03 1542
   459  1.3466e-02  5.6062e-03  7.4635e-03  3.8192e+00  1.3456e-02  5.8397e-03  2.2212e-03  0:02:26 1541
   460  1.3838e-02  5.5500e-03  7.4542e-03  3.8232e+00  1.3828e-02  5.7909e-03  2.2129e-03  0:01:57 1540
   461  1.4171e-02  5.4739e-03  7.4411e-03  3.7849e+00  1.4160e-02  5.7446e-03  2.2132e-03  0:01:34 1539
   462  1.4447e-02  5.3996e-03  7.4257e-03  3.7297e+00  1.4436e-02  5.6970e-03  2.2202e-03  0:01:15 1538

  iter  continuity  x-velocity  y-velocity  z-velocity      energy           k       omega     time/iter
   463  1.4648e-02  5.3296e-03  7.4068e-03  3.7000e+00  1.4636e-02  5.6467e-03  2.2061e-03  0:01:00 1537
   464  1.4767e-02  5.2615e-03  7.3830e-03  3.6789e+00  1.4755e-02  5.5931e-03  2.1913e-03  0:05:55 1536
   465  1.4802e-02  5.1914e-03  7.3533e-03  3.6732e+00  1.4789e-02  5.5384e-03  2.1728e-03  0:04:44 1535
   466  1.4750e-02  5.1108e-03  7.3198e-03  3.6509e+00  1.4738e-02  5.4936e-03  2.1563e-03  0:03:47 1534
   467  1.4612e-02  5.0355e-03  7.2921e-03  3.5954e+00  1.4600e-02  5.4480e-03  2.1430e-03  0:03:01 1533
   468  1.4381e-02  4.9661e-03  7.2646e-03  3.5479e+00  1.4369e-02  5.4056e-03  2.1334e-03  0:02:25 1532
   469  1.4068e-02  4.9006e-03  7.2349e-03  3.5064e+00  1.4056e-02  5.3687e-03  2.1243e-03  0:01:56 1531
   470  1.3686e-02  4.8424e-03  7.2013e-03  3.4712e+00  1.3674e-02  5.3340e-03  2.1149e-03  0:01:33 1530
   471  1.3257e-02  4.7932e-03  7.1581e-03  3.4003e+00  1.3245e-02  5.2953e-03  2.1013e-03  0:01:14 1529
   472  1.2785e-02  4.7609e-03  7.1123e-03  3.3702e+00  1.2774e-02  5.2556e-03  2.0872e-03  0:00:59 1528
   473  1.2269e-02  4.6802e-03  7.0622e-03  3.4054e+00  1.2258e-02  5.2169e-03  2.0727e-03  0:05:53 1527

  iter  continuity  x-velocity  y-velocity  z-velocity      energy           k       omega     time/iter
   474  1.1732e-02  4.6068e-03  7.0301e-03  3.3948e+00  1.1721e-02  5.1786e-03  2.0597e-03  0:04:42 1526
   475  1.1169e-02  4.5514e-03  7.0021e-03  3.3299e+00  1.1159e-02  5.1343e-03  2.0526e-03  0:03:45 1525
   476  1.0603e-02  4.5038e-03  6.9662e-03  3.2415e+00  1.0593e-02  5.0895e-03  2.0383e-03  0:03:00 1524
   477  1.0049e-02  4.4587e-03  6.9238e-03  3.2026e+00  1.0040e-02  5.0411e-03  2.0294e-03  0:02:24 1523
   478  9.4928e-03  4.4175e-03  6.8788e-03  3.2317e+00  9.4840e-03  4.9950e-03  2.0210e-03  0:01:55 1522
   479  8.9454e-03  4.3599e-03  6.8811e-03  3.2952e+00  8.9372e-03  4.9583e-03  2.0092e-03  0:01:32 1521
   480  8.4480e-03  4.3349e-03  6.8167e-03  3.3742e+00  8.4401e-03  4.9161e-03  1.9970e-03  0:01:14 1520
   481  7.9726e-03  4.3121e-03  6.7559e-03  3.3891e+00  7.9649e-03  4.8725e-03  1.9876e-03  0:00:59 1519
   482  7.5530e-03  4.2903e-03  6.6960e-03  3.2801e+00  7.5455e-03  4.8283e-03  1.9809e-03  0:05:51 1518
   483  7.1917e-03  4.2686e-03  6.6373e-03  3.1953e+00  7.1844e-03  4.7827e-03  1.9768e-03  0:04:40 1517
   484  6.8809e-03  4.2451e-03  6.5796e-03  3.1223e+00  6.8737e-03  4.7406e-03  1.9626e-03  0:03:44 1516

  iter  continuity  x-velocity  y-velocity  z-velocity      energy           k       omega     time/iter
   485  6.6233e-03  4.2200e-03  6.5244e-03  3.0668e+00  6.6162e-03  4.6949e-03  1.9451e-03  0:02:59 1515
   486  6.4060e-03  4.1988e-03  6.4658e-03  3.0536e+00  6.3989e-03  4.6482e-03  1.9272e-03  0:02:23 1514
   487  6.2112e-03  4.1786e-03  6.4059e-03  3.0855e+00  6.2041e-03  4.6031e-03  1.9097e-03  0:01:55 1513
   488  6.0280e-03  4.1550e-03  6.3462e-03  3.1052e+00  6.0209e-03  4.5595e-03  1.8889e-03  0:01:32 1512
   489  5.8329e-03  4.1293e-03  6.2875e-03  3.0772e+00  5.8258e-03  4.5208e-03  1.8708e-03  0:01:13 1511
   490  5.6264e-03  4.1029e-03  6.2253e-03  3.0007e+00  5.6192e-03  4.4842e-03  1.8539e-03  0:00:59 1510
   491  5.4125e-03  4.0819e-03  6.1625e-03  2.9938e+00  5.4054e-03  4.4517e-03  1.8369e-03  0:05:49 1509
   492  5.1914e-03  4.0641e-03  6.1073e-03  2.9836e+00  5.1843e-03  4.4248e-03  1.8250e-03  0:04:39 1508
   493  4.9556e-03  4.0498e-03  6.0564e-03  2.9790e+00  4.9486e-03  4.3963e-03  1.8109e-03  0:03:43 1507
   494  4.7153e-03  4.0400e-03  6.0050e-03  2.9467e+00  4.7083e-03  4.3652e-03  1.7956e-03  0:02:58 1506
   495  4.4682e-03  4.0344e-03  5.9565e-03  2.9368e+00  4.4613e-03  4.3273e-03  1.7728e-03  0:02:22 1505

  iter  continuity  x-velocity  y-velocity  z-velocity      energy           k       omega     time/iter
   496  4.2301e-03  4.0289e-03  5.9120e-03  2.9484e+00  4.2234e-03  4.2862e-03  1.7552e-03  0:01:54 1504
   497  3.9981e-03  4.0287e-03  5.8692e-03  2.9673e+00  3.9915e-03  4.2450e-03  1.7340e-03  0:01:31 1503
   498  3.7774e-03  4.0342e-03  5.8286e-03  2.9838e+00  3.7708e-03  4.1980e-03  1.7175e-03  0:01:13 1502
   499  3.5754e-03  4.0411e-03  5.7924e-03  2.9615e+00  3.5689e-03  4.1534e-03  1.6942e-03  0:00:58 1501
   500  3.4075e-03  4.0498e-03  5.7631e-03  2.9814e+00  3.4010e-03  4.1139e-03  1.6805e-03  0:05:47 1500
   501  3.2720e-03  4.0602e-03  5.7401e-03  2.9720e+00  3.2654e-03  4.0747e-03  1.6665e-03  0:04:37 1499
   502  3.1659e-03  4.0748e-03  5.7189e-03  2.9012e+00  3.1592e-03  4.0386e-03  1.6498e-03  0:03:41 1498
   503  3.0858e-03  4.0876e-03  5.7059e-03  2.8944e+00  3.0790e-03  4.0060e-03  1.6333e-03  0:02:57 1497
   504  3.0281e-03  4.0988e-03  5.6991e-03  2.9077e+00  3.0212e-03  3.9695e-03  1.6189e-03  0:02:22 1496
   505  2.9894e-03  4.1155e-03  5.6925e-03  2.9153e+00  2.9824e-03  3.9309e-03  1.6129e-03  0:01:53 1495
   506  2.9581e-03  4.1277e-03  5.6965e-03  2.9188e+00  2.9510e-03  3.8908e-03  1.5948e-03  0:01:30 1494

  iter  continuity  x-velocity  y-velocity  z-velocity      energy           k       omega     time/iter
   507  2.9329e-03  4.1409e-03  5.7040e-03  2.9348e+00  2.9258e-03  3.8505e-03  1.5765e-03  0:01:12 1493
   508  2.9137e-03  4.1510e-03  5.7175e-03  2.8877e+00  2.9065e-03  3.8163e-03  1.5623e-03  0:05:56 1492
   509  2.8957e-03  4.1571e-03  5.7332e-03  2.8397e+00  2.8884e-03  3.7781e-03  1.5488e-03  0:04:45 1491
   510  2.8766e-03  4.1638e-03  5.7473e-03  2.7913e+00  2.8692e-03  3.7428e-03  1.5261e-03  0:03:48 1490
   511  2.8501e-03  4.1689e-03  5.7600e-03  2.7708e+00  2.8427e-03  3.7095e-03  1.5205e-03  0:03:02 1489
   512  2.8321e-03  4.1706e-03  5.7691e-03  2.7390e+00  2.8246e-03  3.6712e-03  1.5092e-03  0:02:26 1488
   513  2.8166e-03  4.1684e-03  5.7742e-03  2.7090e+00  2.8090e-03  3.6341e-03  1.4951e-03  0:01:56 1487
   514  2.7890e-03  4.1617e-03  5.7784e-03  2.6844e+00  2.7814e-03  3.6029e-03  1.4876e-03  0:01:33 1486
   515  2.7565e-03  4.1515e-03  5.7857e-03  2.6558e+00  2.7487e-03  3.5770e-03  1.4831e-03  0:01:14 1485
   516  2.7379e-03  4.1399e-03  5.7936e-03  2.5943e+00  2.7300e-03  3.5494e-03  1.4763e-03  0:00:59 1484
   517  2.7212e-03  4.1218e-03  5.8016e-03  2.5325e+00  2.7132e-03  3.5230e-03  1.4730e-03  0:05:44 1483

  iter  continuity  x-velocity  y-velocity  z-velocity      energy           k       omega     time/iter
   518  2.7165e-03  4.1000e-03  5.8094e-03  2.4746e+00  2.7085e-03  3.4978e-03  1.4701e-03  0:04:35 1482
   519  2.7213e-03  4.0762e-03  5.8188e-03  2.4145e+00  2.7130e-03  3.4735e-03  1.4652e-03  0:03:40 1481
   520  2.7458e-03  4.0472e-03  5.8292e-03  2.3931e+00  2.7373e-03  3.4471e-03  1.4572e-03  0:02:56 1480
   521  2.7590e-03  4.0126e-03  5.8418e-03  2.3885e+00  2.7503e-03  3.4204e-03  1.4514e-03  0:02:21 1479
   522  2.7565e-03  3.9708e-03  5.8557e-03  2.3977e+00  2.7475e-03  3.3906e-03  1.4469e-03  0:01:52 1478
   523  2.7430e-03  3.9299e-03  5.8600e-03  2.3977e+00  2.7341e-03  3.3557e-03  1.4393e-03  0:01:30 1477
   524  2.7254e-03  3.8862e-03  5.8637e-03  2.4215e+00  2.7166e-03  3.3190e-03  1.4293e-03  0:01:12 1476
   525  2.7169e-03  3.8382e-03  5.8673e-03  2.4182e+00  2.7082e-03  3.2848e-03  1.4238e-03  0:05:52 1475
   526  2.7104e-03  3.7792e-03  5.8810e-03  2.4158e+00  2.7016e-03  3.2581e-03  1.4178e-03  0:04:42 1474
   527  2.7107e-03  3.7224e-03  5.8853e-03  2.4330e+00  2.7019e-03  3.2348e-03  1.4082e-03  0:03:45 1473
   528  2.7137e-03  3.6652e-03  5.8828e-03  2.4437e+00  2.7049e-03  3.2147e-03  1.3991e-03  0:03:00 1472

  iter  continuity  x-velocity  y-velocity  z-velocity      energy           k       omega     time/iter
   529  2.7178e-03  3.6089e-03  5.8734e-03  2.4008e+00  2.7089e-03  3.1981e-03  1.3945e-03  0:02:24 1471
   530  2.7194e-03  3.5539e-03  5.8592e-03  2.3569e+00  2.7104e-03  3.1809e-03  1.3864e-03  0:01:55 1470
   531  2.7204e-03  3.4988e-03  5.8414e-03  2.3365e+00  2.7114e-03  3.1651e-03  1.3833e-03  0:01:32 1469
   532  2.7193e-03  3.4435e-03  5.8218e-03  2.3184e+00  2.7102e-03  3.1499e-03  1.3741e-03  0:01:14 1468
   533  2.7169e-03  3.3879e-03  5.8079e-03  2.2986e+00  2.7078e-03  3.1343e-03  1.3664e-03  0:00:59 1467
   534  2.7128e-03  3.3327e-03  5.7909e-03  2.2615e+00  2.7038e-03  3.1210e-03  1.3577e-03  0:05:40 1466
   535  2.7077e-03  3.2768e-03  5.7736e-03  2.2353e+00  2.6988e-03  3.1135e-03  1.3475e-03  0:04:32 1465
   536  2.7026e-03  3.2210e-03  5.7551e-03  2.1902e+00  2.6937e-03  3.1025e-03  1.3376e-03  0:03:37 1464
   537  2.7044e-03  3.1661e-03  5.7354e-03  2.1446e+00  2.6957e-03  3.0970e-03  1.3360e-03  0:02:54 1463
   538  2.7134e-03  3.1125e-03  5.7143e-03  2.1058e+00  2.7049e-03  3.0868e-03  1.3287e-03  0:02:19 1462
   539  2.7294e-03  3.0561e-03  5.6944e-03  2.0629e+00  2.7210e-03  3.0762e-03  1.3191e-03  0:01:51 1461

  iter  continuity  x-velocity  y-velocity  z-velocity      energy           k       omega     time/iter
   540  2.7518e-03  3.0014e-03  5.6754e-03  2.0234e+00  2.7435e-03  3.0656e-03  1.3125e-03  0:01:29 1460
   541  2.7891e-03  2.9479e-03  5.6579e-03  2.0059e+00  2.7809e-03  3.0538e-03  1.3010e-03  0:01:11 1459
   542  2.8295e-03  2.8944e-03  5.6440e-03  1.9933e+00  2.8215e-03  3.0402e-03  1.2892e-03  0:05:48 1458
   543  2.8763e-03  2.8454e-03  5.6288e-03  1.9770e+00  2.8684e-03  3.0271e-03  1.2794e-03  0:04:39 1457
   544  2.9306e-03  2.7959e-03  5.6146e-03  1.9953e+00  2.9230e-03  3.0133e-03  1.2728e-03  0:03:43 1456
   545  2.9919e-03  2.7491e-03  5.5969e-03  2.0173e+00  2.9846e-03  3.0022e-03  1.2639e-03  0:02:58 1455
   546  3.0577e-03  2.7053e-03  5.5735e-03  2.0488e+00  3.0506e-03  2.9951e-03  1.2555e-03  0:02:22 1454
   547  3.1212e-03  2.6653e-03  5.5473e-03  2.0739e+00  3.1143e-03  2.9849e-03  1.2477e-03  0:01:54 1453
   548  3.1682e-03  2.6294e-03  5.5171e-03  2.1090e+00  3.1615e-03  2.9779e-03  1.2405e-03  0:01:31 1452
   549  3.2074e-03  2.5963e-03  5.4841e-03  2.1139e+00  3.2009e-03  2.9722e-03  1.2394e-03  0:01:13 1451
   550  3.2457e-03  2.5614e-03  5.4518e-03  2.1048e+00  3.2393e-03  2.9642e-03  1.2310e-03  0:05:48 1450

  iter  continuity  x-velocity  y-velocity  z-velocity      energy           k       omega     time/iter
   551  3.2847e-03  2.5268e-03  5.4201e-03  2.0663e+00  3.2784e-03  2.9578e-03  1.2230e-03  0:04:38 1449
   552  3.3299e-03  2.4995e-03  5.3875e-03  2.0232e+00  3.3237e-03  2.9453e-03  1.2178e-03  0:03:42 1448
   553  3.3777e-03  2.4739e-03  5.3559e-03  1.9783e+00  3.3715e-03  2.9363e-03  1.2117e-03  0:02:58 1447
   554  3.4227e-03  2.4496e-03  5.3249e-03  1.9450e+00  3.4165e-03  2.9261e-03  1.2078e-03  0:02:22 1446
   555  3.4627e-03  2.4243e-03  5.2973e-03  1.8934e+00  3.4565e-03  2.9143e-03  1.2066e-03  0:01:54 1445
   556  3.5004e-03  2.3946e-03  5.2737e-03  1.8573e+00  3.4943e-03  2.9055e-03  1.2027e-03  0:01:31 1444
   557  3.5380e-03  2.3589e-03  5.2544e-03  1.8387e+00  3.5318e-03  2.8974e-03  1.2004e-03  0:01:13 1443
   558  3.5693e-03  2.3308e-03  5.2332e-03  1.8348e+00  3.5630e-03  2.8898e-03  1.1994e-03  0:05:46 1442
   559  3.5927e-03  2.3032e-03  5.2105e-03  1.8140e+00  3.5864e-03  2.8806e-03  1.1992e-03  0:04:37 1441
   560  3.6070e-03  2.2829e-03  5.1890e-03  1.7814e+00  3.6007e-03  2.8718e-03  1.1921e-03  0:03:41 1440
   561  3.6102e-03  2.2697e-03  5.1665e-03  1.7652e+00  3.6039e-03  2.8640e-03  1.1861e-03  0:02:57 1439

  iter  continuity  x-velocity  y-velocity  z-velocity      energy           k       omega     time/iter
   562  3.5991e-03  2.2586e-03  5.1434e-03  1.7651e+00  3.5927e-03  2.8557e-03  1.1846e-03  0:02:22 1438
   563  3.5697e-03  2.2476e-03  5.1212e-03  1.7843e+00  3.5633e-03  2.8475e-03  1.1816e-03  0:01:53 1437
   564  3.5305e-03  2.2359e-03  5.0983e-03  1.8031e+00  3.5241e-03  2.8378e-03  1.1745e-03  0:01:30 1436
   565  3.4809e-03  2.2235e-03  5.0765e-03  1.8236e+00  3.4744e-03  2.8330e-03  1.1723e-03  0:01:12 1435
   566  3.4218e-03  2.2121e-03  5.0541e-03  1.8581e+00  3.4154e-03  2.8255e-03  1.1688e-03  0:05:45 1434
   567  3.3553e-03  2.1995e-03  5.0281e-03  1.8866e+00  3.3489e-03  2.8182e-03  1.1652e-03  0:04:35 1433
   568  3.2850e-03  2.1849e-03  5.0008e-03  1.9211e+00  3.2787e-03  2.8133e-03  1.1639e-03  0:03:40 1432
   569  3.2131e-03  2.1689e-03  4.9721e-03  1.9766e+00  3.2068e-03  2.8079e-03  1.1605e-03  0:02:56 1431
   570  3.1428e-03  2.1519e-03  4.9395e-03  1.9629e+00  3.1365e-03  2.8022e-03  1.1573e-03  0:02:21 1430
   571  3.0760e-03  2.1354e-03  4.9047e-03  1.9028e+00  3.0698e-03  2.7943e-03  1.1564e-03  0:01:53 1429
   572  3.0131e-03  2.1203e-03  4.8687e-03  1.8529e+00  3.0069e-03  2.7908e-03  1.1586e-03  0:01:30 1428

  iter  continuity  x-velocity  y-velocity  z-velocity      energy           k       omega     time/iter
   573  2.9552e-03  2.1104e-03  4.8312e-03  1.8069e+00  2.9489e-03  2.7861e-03  1.1576e-03  0:01:12 1427
   574  2.8995e-03  2.1005e-03  4.7930e-03  1.7736e+00  2.8932e-03  2.7801e-03  1.1572e-03  0:05:43 1426
   575  2.8489e-03  2.0877e-03  4.7595e-03  1.7705e+00  2.8426e-03  2.7758e-03  1.1588e-03  0:04:34 1425
   576  2.8034e-03  2.0768e-03  4.7263e-03  1.8094e+00  2.7972e-03  2.7696e-03  1.1620e-03  0:03:39 1424
   577  2.7622e-03  2.0646e-03  4.6941e-03  1.8685e+00  2.7560e-03  2.7654e-03  1.1648e-03  0:02:55 1423
   578  2.7216e-03  2.0494e-03  4.6634e-03  1.8553e+00  2.7154e-03  2.7629e-03  1.1672e-03  0:02:20 1422
   579  2.6821e-03  2.0369e-03  4.6331e-03  1.8373e+00  2.6759e-03  2.7593e-03  1.1686e-03  0:01:52 1421
   580  2.6429e-03  2.0256e-03  4.6035e-03  1.8568e+00  2.6368e-03  2.7592e-03  1.1724e-03  0:01:29 1420
   581  2.6033e-03  2.0131e-03  4.5755e-03  1.8720e+00  2.5972e-03  2.7587e-03  1.1781e-03  0:01:12 1419
   582  2.5633e-03  1.9958e-03  4.5523e-03  1.8789e+00  2.5572e-03  2.7586e-03  1.1830e-03  0:05:41 1418
   583  2.5199e-03  1.9786e-03  4.5315e-03  1.8953e+00  2.5138e-03  2.7590e-03  1.1862e-03  0:04:32 1417

  iter  continuity  x-velocity  y-velocity  z-velocity      energy           k       omega     time/iter
   584  2.4655e-03  1.9616e-03  4.5135e-03  1.9276e+00  2.4594e-03  2.7594e-03  1.1911e-03  0:03:38 1416
   585  2.4127e-03  1.9464e-03  4.4970e-03  1.9736e+00  2.4067e-03  2.7647e-03  1.1954e-03  0:02:54 1415
   586  2.3576e-03  1.9316e-03  4.4800e-03  2.0437e+00  2.3517e-03  2.7688e-03  1.1968e-03  0:02:19 1414
   587  2.3020e-03  1.9155e-03  4.4635e-03  2.0770e+00  2.2961e-03  2.7735e-03  1.2033e-03  0:01:51 1413
   588  2.2468e-03  1.9008e-03  4.4450e-03  2.0994e+00  2.2410e-03  2.7801e-03  1.2107e-03  0:01:29 1412
   589  2.1941e-03  1.8868e-03  4.4274e-03  2.1043e+00  2.1884e-03  2.7835e-03  1.2155e-03  0:01:11 1411
   590  2.1459e-03  1.8728e-03  4.4073e-03  2.0690e+00  2.1402e-03  2.7914e-03  1.2217e-03  0:05:39 1410
   591  2.1055e-03  1.8593e-03  4.3869e-03  2.0284e+00  2.0998e-03  2.7997e-03  1.2280e-03  0:04:31 1409
   592  2.0677e-03  1.8454e-03  4.3665e-03  2.0235e+00  2.0620e-03  2.8079e-03  1.2338e-03  0:03:37 1408
   593  2.0314e-03  1.8322e-03  4.3481e-03  2.0159e+00  2.0257e-03  2.8201e-03  1.2402e-03  0:02:53 1407
   594  1.9934e-03  1.8195e-03  4.3310e-03  2.0158e+00  1.9877e-03  2.8301e-03  1.2477e-03  0:02:18 1406

  iter  continuity  x-velocity  y-velocity  z-velocity      energy           k       omega     time/iter
   595  1.9539e-03  1.8071e-03  4.3145e-03  2.0272e+00  1.9481e-03  2.8389e-03  1.2525e-03  0:01:51 1405
   596  1.9139e-03  1.7948e-03  4.2986e-03  2.0626e+00  1.9081e-03  2.8528e-03  1.2586e-03  0:01:28 1404
   597  1.8676e-03  1.7832e-03  4.2813e-03  2.0911e+00  1.8618e-03  2.8640e-03  1.2639e-03  0:05:51 1403
   598  1.8197e-03  1.7718e-03  4.2636e-03  2.1013e+00  1.8139e-03  2.8711e-03  1.2681e-03  0:04:41 1402
   599  1.7745e-03  1.7607e-03  4.2480e-03  2.1135e+00  1.7686e-03  2.8840e-03  1.2725e-03  0:03:45 1401
   600  1.7338e-03  1.7493e-03  4.2346e-03  2.1183e+00  1.7278e-03  2.8941e-03  1.2793e-03  0:02:59 1400
   601  1.7016e-03  1.7380e-03  4.2232e-03  2.1323e+00  1.6955e-03  2.9011e-03  1.2838e-03  0:02:23 1399
   602  1.6764e-03  1.7266e-03  4.2122e-03  2.1495e+00  1.6702e-03  2.9119e-03  1.2851e-03  0:01:55 1398
   603  1.6606e-03  1.7153e-03  4.2010e-03  2.1554e+00  1.6543e-03  2.9192e-03  1.2868e-03  0:01:32 1397
   604  1.6478e-03  1.7042e-03  4.1895e-03  2.1688e+00  1.6415e-03  2.9287e-03  1.2901e-03  0:01:13 1396
   605  1.6381e-03  1.6942e-03  4.1778e-03  2.1702e+00  1.6319e-03  2.9402e-03  1.2961e-03  0:05:38 1395

  iter  continuity  x-velocity  y-velocity  z-velocity      energy           k       omega     time/iter
   606  1.6411e-03  1.6857e-03  4.1669e-03  2.1613e+00  1.6349e-03  2.9482e-03  1.2968e-03  0:04:30 1394
   607  1.6469e-03  1.6766e-03  4.1595e-03  2.1742e+00  1.6406e-03  2.9600e-03  1.2975e-03  0:03:36 1393
   608  1.6534e-03  1.6672e-03  4.1485e-03  2.1888e+00  1.6472e-03  2.9729e-03  1.3015e-03  0:02:52 1392
   609  1.6631e-03  1.6576e-03  4.1354e-03  2.2042e+00  1.6569e-03  2.9834e-03  1.3001e-03  0:02:18 1391
   610  1.6805e-03  1.6479e-03  4.1200e-03  2.2163e+00  1.6744e-03  2.9963e-03  1.3042e-03  0:01:50 1390
   611  1.7085e-03  1.6385e-03  4.1037e-03  2.2203e+00  1.7024e-03  3.0051e-03  1.3075e-03  0:01:28 1389
   612  1.7459e-03  1.6296e-03  4.0832e-03  2.2084e+00  1.7398e-03  3.0178e-03  1.3085e-03  0:01:10 1388
   613  1.7897e-03  1.6208e-03  4.0608e-03  2.1977e+00  1.7835e-03  3.0298e-03  1.3114e-03  0:05:34 1387
   614  1.8404e-03  1.6125e-03  4.0365e-03  2.2005e+00  1.8342e-03  3.0374e-03  1.3166e-03  0:04:27 1386
   615  1.8935e-03  1.6045e-03  4.0104e-03  2.2075e+00  1.8873e-03  3.0471e-03  1.3186e-03  0:03:33 1385
   616  1.9511e-03  1.5965e-03  3.9859e-03  2.2243e+00  1.9449e-03  3.0579e-03  1.3239e-03  0:02:50 1384

  iter  continuity  x-velocity  y-velocity  z-velocity      energy           k       omega     time/iter
   617  2.0063e-03  1.5890e-03  3.9625e-03  2.2646e+00  2.0001e-03  3.0639e-03  1.3284e-03  0:02:16 1383
   618  2.0562e-03  1.5809e-03  3.9401e-03  2.3071e+00  2.0501e-03  3.0732e-03  1.3297e-03  0:01:49 1382
   619  2.1030e-03  1.5721e-03  3.9195e-03  2.3498e+00  2.0969e-03  3.0821e-03  1.3342e-03  0:01:27 1381
   620  2.1468e-03  1.5626e-03  3.8964e-03  2.3627e+00  2.1406e-03  3.0917e-03  1.3375e-03  0:05:46 1380
   621  2.1886e-03  1.5530e-03  3.8744e-03  2.3637e+00  2.1825e-03  3.1020e-03  1.3405e-03  0:04:36 1379
   622  2.2354e-03  1.5430e-03  3.8535e-03  2.3766e+00  2.2292e-03  3.1137e-03  1.3431e-03  0:03:41 1378
   623  2.2859e-03  1.5328e-03  3.8336e-03  2.3520e+00  2.2797e-03  3.1187e-03  1.3462e-03  0:02:57 1377
   624  2.3346e-03  1.5225e-03  3.8137e-03  2.3290e+00  2.3284e-03  3.1329e-03  1.3485e-03  0:02:21 1376
   625  2.3815e-03  1.5118e-03  3.7950e-03  2.2835e+00  2.3753e-03  3.1426e-03  1.3466e-03  0:01:53 1375
   626  2.4217e-03  1.5015e-03  3.7770e-03  2.2423e+00  2.4155e-03  3.1537e-03  1.3465e-03  0:01:30 1374
[...]
  1850  6.2336e-03  3.1111e-03  6.9282e-03  1.3357e+01  6.2265e-03  4.9181e-03  2.0569e-03  0:00:36  150
  1851  6.0826e-03  3.0883e-03  6.9569e-03  1.3156e+01  6.0753e-03  4.8910e-03  2.0488e-03  0:00:29  149
  1852  5.9362e-03  3.0633e-03  6.9922e-03  1.2985e+01  5.9288e-03  4.8576e-03  2.0408e-03  0:00:23  148
  1853  5.7908e-03  3.0383e-03  7.0285e-03  1.2810e+01  5.7833e-03  4.8234e-03  2.0288e-03  0:00:18  147
  1854  5.6490e-03  3.0207e-03  7.0653e-03  1.2603e+01  5.6414e-03  4.7867e-03  2.0125e-03  0:00:14  146
  1855  5.5132e-03  3.0083e-03  7.1027e-03  1.2367e+01  5.5054e-03  4.7513e-03  1.9964e-03  0:00:11  145
  1856  5.3811e-03  2.9966e-03  7.1412e-03  1.2062e+01  5.3732e-03  4.7166e-03  1.9885e-03  0:00:09  144
  1857  5.2554e-03  2.9830e-03  7.1806e-03  1.1682e+01  5.2473e-03  4.6845e-03  1.9744e-03  0:00:36  143
  1858  5.1447e-03  2.9650e-03  7.2220e-03  1.1502e+01  5.1365e-03  4.6468e-03  1.9553e-03  0:00:28  142
  1859  5.0380e-03  2.9452e-03  7.2666e-03  1.1441e+01  5.0296e-03  4.6154e-03  1.9437e-03  0:00:23  141

  iter  continuity  x-velocity  y-velocity  z-velocity      energy           k       omega     time/iter
  1860  4.9263e-03  2.9267e-03  7.3139e-03  1.1471e+01  4.9177e-03  4.5838e-03  1.9318e-03  0:00:18  140
  1861  4.8141e-03  2.9113e-03  7.3627e-03  1.1524e+01  4.8053e-03  4.5564e-03  1.9191e-03  0:00:14  139
  1862  4.7025e-03  2.8969e-03  7.4135e-03  1.1527e+01  4.6935e-03  4.5323e-03  1.9065e-03  0:00:11  138
  1863  4.5883e-03  2.8835e-03  7.4650e-03  1.1474e+01  4.5791e-03  4.5166e-03  1.8978e-03  0:00:09  137
  1864  4.4780e-03  2.8707e-03  7.5161e-03  1.1340e+01  4.4687e-03  4.4969e-03  1.8871e-03  0:00:34  136
  1865  4.3701e-03  2.8592e-03  7.5680e-03  1.1210e+01  4.3605e-03  4.4777e-03  1.8752e-03  0:00:27  135
  1866  4.2635e-03  2.8524e-03  7.6177e-03  1.1135e+01  4.2538e-03  4.4626e-03  1.8659e-03  0:00:22  134
  1867  4.1636e-03  2.8509e-03  7.6662e-03  1.1058e+01  4.1536e-03  4.4469e-03  1.8598e-03  0:00:17  133
  1868  4.0754e-03  2.8535e-03  7.7141e-03  1.1001e+01  4.0653e-03  4.4274e-03  1.8538e-03  0:00:14  132
  1869  3.9954e-03  2.8553e-03  7.7611e-03  1.0983e+01  3.9852e-03  4.4080e-03  1.8391e-03  0:00:11  131
  1870  3.9228e-03  2.8564e-03  7.8079e-03  1.0967e+01  3.9124e-03  4.3933e-03  1.8306e-03  0:00:09  130

  iter  continuity  x-velocity  y-velocity  z-velocity      energy           k       omega     time/iter
  1871  3.8608e-03  2.8579e-03  7.8534e-03  1.0990e+01  3.8503e-03  4.3781e-03  1.8217e-03  0:00:33  129
  1872  3.8015e-03  2.8606e-03  7.8974e-03  1.1011e+01  3.7910e-03  4.3587e-03  1.8167e-03  0:00:26  128
  1873  3.7511e-03  2.8641e-03  7.9396e-03  1.0989e+01  3.7405e-03  4.3354e-03  1.8063e-03  0:00:21  127
  1874  3.7143e-03  2.8681e-03  7.9810e-03  1.1006e+01  3.7037e-03  4.3104e-03  1.7999e-03  0:00:16  126
  1875  3.6927e-03  2.8720e-03  8.0213e-03  1.0974e+01  3.6820e-03  4.2860e-03  1.7953e-03  0:00:13  125
  1876  3.6831e-03  2.8768e-03  8.0594e-03  1.0954e+01  3.6725e-03  4.2628e-03  1.7921e-03  0:00:10  124
  1877  3.6833e-03  2.8826e-03  8.0953e-03  1.0897e+01  3.6727e-03  4.2373e-03  1.7816e-03  0:00:08  123
  1878  3.6912e-03  2.8888e-03  8.1299e-03  1.0775e+01  3.6806e-03  4.2104e-03  1.7740e-03  0:00:06  122
  1879  3.7021e-03  2.8959e-03  8.1624e-03  1.0663e+01  3.6915e-03  4.1859e-03  1.7702e-03  0:00:29  121
  1880  3.7169e-03  2.9027e-03  8.1932e-03  1.0584e+01  3.7065e-03  4.1601e-03  1.7663e-03  0:00:23  120
  1881  3.7351e-03  2.9093e-03  8.2232e-03  1.0580e+01  3.7247e-03  4.1328e-03  1.7582e-03  0:00:18  119

  iter  continuity  x-velocity  y-velocity  z-velocity      energy           k       omega     time/iter
  1882  3.7554e-03  2.9162e-03  8.2516e-03  1.0630e+01  3.7451e-03  4.1104e-03  1.7567e-03  0:00:15  118
  1883  3.7775e-03  2.9232e-03  8.2781e-03  1.0691e+01  3.7672e-03  4.0899e-03  1.7531e-03  0:00:12  117
  1884  3.8007e-03  2.9287e-03  8.3026e-03  1.0759e+01  3.7905e-03  4.0667e-03  1.7445e-03  0:00:09  116
  1885  3.8264e-03  2.9332e-03  8.3255e-03  1.0819e+01  3.8164e-03  4.0424e-03  1.7337e-03  0:00:07  115
  1886  3.8507e-03  2.9387e-03  8.3467e-03  1.0885e+01  3.8408e-03  4.0212e-03  1.7325e-03  0:00:29  114
  1887  3.8762e-03  2.9434e-03  8.3656e-03  1.0993e+01  3.8664e-03  4.0022e-03  1.7288e-03  0:00:23  113
  1888  3.9008e-03  2.9456e-03  8.3824e-03  1.1128e+01  3.8911e-03  3.9831e-03  1.7177e-03  0:00:18  112
  1889  3.9251e-03  2.9456e-03  8.3980e-03  1.1291e+01  3.9154e-03  3.9675e-03  1.7066e-03  0:00:14  111
  1890  3.9486e-03  2.9464e-03  8.4115e-03  1.1450e+01  3.9390e-03  3.9509e-03  1.7021e-03  0:00:11  110
  1891  3.9685e-03  2.9463e-03  8.4219e-03  1.1615e+01  3.9591e-03  3.9290e-03  1.6937e-03  0:00:09  109
  1892  3.9840e-03  2.9439e-03  8.4302e-03  1.1755e+01  3.9746e-03  3.9075e-03  1.6852e-03  0:00:07  108

  iter  continuity  x-velocity  y-velocity  z-velocity      energy           k       omega     time/iter
  1893  3.9939e-03  2.9402e-03  8.4367e-03  1.1907e+01  3.9846e-03  3.8888e-03  1.6848e-03  0:00:06  107
  1894  3.9999e-03  2.9357e-03  8.4400e-03  1.2062e+01  3.9907e-03  3.8658e-03  1.6830e-03  0:00:26  106
  1895  4.0051e-03  2.9307e-03  8.4409e-03  1.2236e+01  3.9959e-03  3.8421e-03  1.6757e-03  0:00:20  105
  1896  4.0146e-03  2.9254e-03  8.4399e-03  1.2401e+01  4.0055e-03  3.8198e-03  1.6691e-03  0:00:16  104
  1897  4.0212e-03  2.9196e-03  8.4367e-03  1.2605e+01  4.0122e-03  3.7972e-03  1.6700e-03  0:00:13  103
  1898  4.0202e-03  2.9097e-03  8.4305e-03  1.2846e+01  4.0114e-03  3.7750e-03  1.6661e-03  0:00:10  102
  1899  4.0096e-03  2.8979e-03  8.4213e-03  1.3105e+01  4.0008e-03  3.7529e-03  1.6620e-03  0:00:08  101
  1900  3.9987e-03  2.8867e-03  8.4108e-03  1.3402e+01  3.9900e-03  3.7319e-03  1.6566e-03  0:00:06  100
  1901  3.9856e-03  2.8751e-03  8.3972e-03  1.3650e+01  3.9770e-03  3.7065e-03  1.6520e-03  0:00:25   99
  1902  3.9683e-03  2.8627e-03  8.3818e-03  1.3942e+01  3.9598e-03  3.6781e-03  1.6447e-03  0:00:20   98
  1903  3.9394e-03  2.8532e-03  8.3622e-03  1.4180e+01  3.9309e-03  3.6480e-03  1.6387e-03  0:00:16   97

  iter  continuity  x-velocity  y-velocity  z-velocity      energy           k       omega     time/iter
  1904  3.9099e-03  2.8437e-03  8.3436e-03  1.4543e+01  3.9014e-03  3.6146e-03  1.6331e-03  0:00:12   96
  1905  3.8858e-03  2.8331e-03  8.3239e-03  1.4911e+01  3.8774e-03  3.5826e-03  1.6284e-03  0:00:10   95
  1906  3.8672e-03  2.8230e-03  8.3029e-03  1.5350e+01  3.8589e-03  3.5517e-03  1.6222e-03  0:00:08   94
  1907  3.8433e-03  2.8126e-03  8.2811e-03  1.5805e+01  3.8350e-03  3.5222e-03  1.6165e-03  0:00:06   93
  1908  3.8186e-03  2.7982e-03  8.2591e-03  1.6282e+01  3.8104e-03  3.4935e-03  1.6121e-03  0:00:23   92
  1909  3.7930e-03  2.7829e-03  8.2385e-03  1.6717e+01  3.7849e-03  3.4671e-03  1.6050e-03  0:00:18   91
  1910  3.7670e-03  2.7678e-03  8.2169e-03  1.7338e+01  3.7589e-03  3.4433e-03  1.6002e-03  0:00:15   90
  1911  3.7474e-03  2.7529e-03  8.1935e-03  1.7929e+01  3.7394e-03  3.4209e-03  1.5930e-03  0:00:12   89
  1912  3.7331e-03  2.7388e-03  8.1671e-03  1.8364e+01  3.7252e-03  3.3976e-03  1.5860e-03  0:00:09   88
  1913  3.7224e-03  2.7273e-03  8.1391e-03  1.8851e+01  3.7145e-03  3.3774e-03  1.5798e-03  0:00:07   87
  1914  3.7094e-03  2.7159e-03  8.1123e-03  1.9277e+01  3.7015e-03  3.3594e-03  1.5728e-03  0:00:06   86

  iter  continuity  x-velocity  y-velocity  z-velocity      energy           k       omega     time/iter
  1915  3.6940e-03  2.7085e-03  8.0857e-03  1.9496e+01  3.6862e-03  3.3397e-03  1.5609e-03  0:00:05   85
  1916  3.6864e-03  2.6998e-03  8.0636e-03  1.9780e+01  3.6786e-03  3.3234e-03  1.5514e-03  0:00:20   84
  1917  3.6919e-03  2.6881e-03  8.0446e-03  2.0165e+01  3.6840e-03  3.3080e-03  1.5419e-03  0:00:16   83
  1918  3.7068e-03  2.6709e-03  8.0290e-03  2.0435e+01  3.6990e-03  3.2910e-03  1.5307e-03  0:00:13   82
  1919  3.7376e-03  2.6532e-03  8.0159e-03  2.0984e+01  3.7298e-03  3.2765e-03  1.5203e-03  0:00:10   81
  1920  3.7785e-03  2.6365e-03  8.0023e-03  2.1537e+01  3.7708e-03  3.2619e-03  1.5091e-03  0:00:08   80
  1921  3.8247e-03  2.6201e-03  7.9898e-03  2.2012e+01  3.8170e-03  3.2470e-03  1.4953e-03  0:00:06   79
  1922  3.8785e-03  2.6044e-03  7.9781e-03  2.2704e+01  3.8708e-03  3.2333e-03  1.4839e-03  0:00:05   78
  1923  3.9318e-03  2.5893e-03  7.9642e-03  2.3240e+01  3.9242e-03  3.2211e-03  1.4737e-03  0:00:19   77
  1924  3.9764e-03  2.5735e-03  7.9501e-03  2.3745e+01  3.9689e-03  3.2075e-03  1.4612e-03  0:00:15   76
  1925  4.0178e-03  2.5584e-03  7.9385e-03  2.4482e+01  4.0102e-03  3.1945e-03  1.4498e-03  0:00:12   75

  iter  continuity  x-velocity  y-velocity  z-velocity      energy           k       omega     time/iter
  1926  4.0496e-03  2.5463e-03  7.9271e-03  2.5251e+01  4.0421e-03  3.1834e-03  1.4397e-03  0:00:10   74
  1927  4.0820e-03  2.5337e-03  7.9209e-03  2.5767e+01  4.0745e-03  3.1728e-03  1.4309e-03  0:00:08   73
  1928  4.1126e-03  2.5212e-03  7.9133e-03  2.6565e+01  4.1051e-03  3.1625e-03  1.4221e-03  0:00:06   72
  1929  4.1380e-03  2.5089e-03  7.9032e-03  2.7433e+01  4.1306e-03  3.1510e-03  1.4130e-03  0:00:05   71
  1930  4.1599e-03  2.4973e-03  7.8916e-03  2.8157e+01  4.1525e-03  3.1389e-03  1.4030e-03  0:00:04   70
  1931  4.1729e-03  2.4856e-03  7.8804e-03  2.8573e+01  4.1655e-03  3.1281e-03  1.3931e-03  0:00:17   69
  1932  4.1581e-03  2.4684e-03  7.8640e-03  2.9155e+01  4.1506e-03  3.1184e-03  1.3843e-03  0:00:13   68
  1933  4.1427e-03  2.4534e-03  7.8485e-03  2.9612e+01  4.1352e-03  3.1074e-03  1.3752e-03  0:00:10   67
  1934  4.1237e-03  2.4377e-03  7.8311e-03  2.9751e+01  4.1162e-03  3.0956e-03  1.3667e-03  0:00:08   66
  1935  4.0968e-03  2.4225e-03  7.8183e-03  3.0174e+01  4.0892e-03  3.0856e-03  1.3590e-03  0:00:06   65
  1936  4.0618e-03  2.4075e-03  7.8049e-03  3.0870e+01  4.0541e-03  3.0782e-03  1.3508e-03  0:00:05   64

  iter  continuity  x-velocity  y-velocity  z-velocity      energy           k       omega     time/iter
  1937  4.0203e-03  2.3930e-03  7.7908e-03  3.1263e+01  4.0126e-03  3.0693e-03  1.3433e-03  0:00:04   63
  1938  3.9682e-03  2.3788e-03  7.7766e-03  3.1726e+01  3.9605e-03  3.0590e-03  1.3354e-03  0:00:16   62
  1939  3.9045e-03  2.3655e-03  7.7620e-03  3.2255e+01  3.8968e-03  3.0495e-03  1.3277e-03  0:00:12   61
  1940  3.8288e-03  2.3519e-03  7.7498e-03  3.2771e+01  3.8210e-03  3.0413e-03  1.3213e-03  0:00:10   60
  1941  3.7478e-03  2.3375e-03  7.7406e-03  3.3542e+01  3.7400e-03  3.0317e-03  1.3115e-03  0:00:08   59
  1942  3.6656e-03  2.3232e-03  7.7290e-03  3.4154e+01  3.6578e-03  3.0233e-03  1.3043e-03  0:00:06   58
  1943  3.5800e-03  2.3116e-03  7.7163e-03  3.4900e+01  3.5722e-03  3.0154e-03  1.2963e-03  0:00:05   57
  1944  3.4906e-03  2.3036e-03  7.7016e-03  3.5740e+01  3.4829e-03  3.0066e-03  1.2888e-03  0:00:04   56
  1945  3.3991e-03  2.2929e-03  7.6896e-03  3.6579e+01  3.3914e-03  3.0018e-03  1.2821e-03  0:00:03   55
  1946  3.3115e-03  2.2813e-03  7.6774e-03  3.7270e+01  3.3038e-03  2.9995e-03  1.2739e-03  0:00:13   54
  1947  3.2299e-03  2.2688e-03  7.6610e-03  3.7971e+01  3.2223e-03  2.9939e-03  1.2671e-03  0:00:10   53

  iter  continuity  x-velocity  y-velocity  z-velocity      energy           k       omega     time/iter
  1948  3.1516e-03  2.2548e-03  7.6458e-03  3.8735e+01  3.1439e-03  2.9907e-03  1.2594e-03  0:00:08   52
  1949  3.0762e-03  2.2432e-03  7.6300e-03  3.9663e+01  3.0685e-03  2.9887e-03  1.2523e-03  0:00:06   51
  1950  3.0031e-03  2.2317e-03  7.6142e-03  4.0590e+01  2.9954e-03  2.9842e-03  1.2461e-03  0:00:05   50
  1951  2.9320e-03  2.2182e-03  7.6014e-03  4.1138e+01  2.9242e-03  2.9789e-03  1.2392e-03  0:00:04   49
  1952  2.8637e-03  2.2056e-03  7.5891e-03  4.2028e+01  2.8559e-03  2.9751e-03  1.2315e-03  0:00:03   48
  1953  2.7953e-03  2.1947e-03  7.5747e-03  4.2899e+01  2.7875e-03  2.9708e-03  1.2270e-03  0:00:12   47
  1954  2.7281e-03  2.1832e-03  7.5593e-03  4.3468e+01  2.7203e-03  2.9661e-03  1.2225e-03  0:00:09   46
  1955  2.6673e-03  2.1715e-03  7.5425e-03  4.4574e+01  2.6595e-03  2.9601e-03  1.2171e-03  0:00:07   45
  1956  2.6157e-03  2.1600e-03  7.5248e-03  4.5534e+01  2.6079e-03  2.9567e-03  1.2118e-03  0:00:06   44
  1957  2.5694e-03  2.1486e-03  7.5074e-03  4.6224e+01  2.5616e-03  2.9534e-03  1.2087e-03  0:00:04   43
  1958  2.5294e-03  2.1376e-03  7.4896e-03  4.6790e+01  2.5216e-03  2.9488e-03  1.2049e-03  0:00:03   42

  iter  continuity  x-velocity  y-velocity  z-velocity      energy           k       omega     time/iter
  1959  2.4971e-03  2.1273e-03  7.4716e-03  4.7259e+01  2.4892e-03  2.9494e-03  1.2012e-03  0:00:03   41
  1960  2.4694e-03  2.1179e-03  7.4534e-03  4.8483e+01  2.4614e-03  2.9495e-03  1.1997e-03  0:00:10   40
  1961  2.4435e-03  2.1105e-03  7.4289e-03  4.9244e+01  2.4355e-03  2.9511e-03  1.1980e-03  0:00:08   39
  1962  2.4186e-03  2.1011e-03  7.4059e-03  4.8997e+01  2.4105e-03  2.9530e-03  1.1939e-03  0:00:06   38
  1963  2.4021e-03  2.0889e-03  7.3817e-03  4.9404e+01  2.3940e-03  2.9553e-03  1.1924e-03  0:00:05   37
  1964  2.3862e-03  2.0757e-03  7.3562e-03  4.8896e+01  2.3780e-03  2.9586e-03  1.1897e-03  0:00:04   36
  1965  2.3692e-03  2.0624e-03  7.3370e-03  4.7335e+01  2.3609e-03  2.9643e-03  1.1852e-03  0:00:03   35
  1966  2.3667e-03  2.0499e-03  7.3199e-03  4.6221e+01  2.3584e-03  2.9697e-03  1.1828e-03  0:00:02   34
  1967  2.3780e-03  2.0409e-03  7.2943e-03  4.5124e+01  2.3696e-03  2.9756e-03  1.1796e-03  0:00:08   33
  1968  2.3988e-03  2.0332e-03  7.2646e-03  4.4643e+01  2.3902e-03  2.9825e-03  1.1787e-03  0:00:06   32
  1969  2.4318e-03  2.0269e-03  7.2377e-03  4.4587e+01  2.4230e-03  2.9885e-03  1.1776e-03  0:00:05   31

  iter  continuity  x-velocity  y-velocity  z-velocity      energy           k       omega     time/iter
  1970  2.4760e-03  2.0218e-03  7.2167e-03  4.4347e+01  2.4671e-03  2.9959e-03  1.1745e-03  0:00:04   30
  1971  2.5337e-03  2.0160e-03  7.1938e-03  4.4663e+01  2.5247e-03  3.0048e-03  1.1716e-03  0:00:03   29
  1972  2.5985e-03  2.0119e-03  7.1729e-03  4.4862e+01  2.5895e-03  3.0139e-03  1.1700e-03  0:00:02   28
  1973  2.6625e-03  2.0091e-03  7.1522e-03  4.5310e+01  2.6534e-03  3.0238e-03  1.1664e-03  0:00:02   27
  1974  2.7271e-03  2.0084e-03  7.1294e-03  4.4895e+01  2.7181e-03  3.0338e-03  1.1641e-03  0:00:01   26
  1975  2.7985e-03  2.0090e-03  7.1090e-03  4.3863e+01  2.7895e-03  3.0419e-03  1.1603e-03  0:00:06   25
  1976  2.8748e-03  2.0096e-03  7.0888e-03  4.2720e+01  2.8657e-03  3.0508e-03  1.1572e-03  0:00:05   24
  1977  2.9533e-03  2.0111e-03  7.0704e-03  4.1766e+01  2.9442e-03  3.0602e-03  1.1538e-03  0:00:04   23
  1978  3.0250e-03  2.0121e-03  7.0541e-03  4.0755e+01  3.0159e-03  3.0695e-03  1.1496e-03  0:00:03   22
  1979  3.0964e-03  2.0125e-03  7.0397e-03  4.0041e+01  3.0873e-03  3.0776e-03  1.1466e-03  0:00:02   21
  1980  3.1628e-03  2.0120e-03  7.0269e-03  4.0177e+01  3.1537e-03  3.0872e-03  1.1429e-03  0:00:02   20

  iter  continuity  x-velocity  y-velocity  z-velocity      energy           k       omega     time/iter
  1981  3.2182e-03  2.0113e-03  7.0150e-03  4.1321e+01  3.2090e-03  3.0952e-03  1.1384e-03  0:00:01   19
  1982  3.2642e-03  2.0120e-03  7.0017e-03  4.2551e+01  3.2550e-03  3.1059e-03  1.1351e-03  0:00:05   18
  1983  3.2935e-03  2.0134e-03  6.9868e-03  4.4099e+01  3.2843e-03  3.1152e-03  1.1331e-03  0:00:03   17
  1984  3.3032e-03  2.0144e-03  6.9683e-03  4.6274e+01  3.2942e-03  3.1239e-03  1.1310e-03  0:00:03   16
  1985  3.3211e-03  2.0189e-03  6.9463e-03  4.9046e+01  3.3122e-03  3.1325e-03  1.1275e-03  0:00:02   15
  1986  3.3356e-03  2.0279e-03  6.9212e-03  5.1713e+01  3.3270e-03  3.1407e-03  1.1266e-03  0:00:01   14
  1987  3.3448e-03  2.0399e-03  6.8921e-03  5.3653e+01  3.3363e-03  3.1481e-03  1.1274e-03  0:00:01   13
  1988  3.3579e-03  2.0560e-03  6.8626e-03  5.5784e+01  3.3496e-03  3.1535e-03  1.1287e-03  0:00:01   12
  1989  3.3810e-03  2.0794e-03  6.8310e-03  5.8368e+01  3.3728e-03  3.1620e-03  1.1319e-03  0:00:03   11
  1990  3.4107e-03  2.1088e-03  6.7960e-03  6.0558e+01  3.4027e-03  3.1693e-03  1.1364e-03  0:00:02   10
  1991  3.4421e-03  2.1446e-03  6.7616e-03  6.2125e+01  3.4342e-03  3.1749e-03  1.1401e-03  0:00:01    9

  iter  continuity  x-velocity  y-velocity  z-velocity      energy           k       omega     time/iter
  1992  3.4731e-03  2.1844e-03  6.7285e-03  6.3688e+01  3.4653e-03  3.1810e-03  1.1435e-03  0:00:01    8
  1993  3.5005e-03  2.2263e-03  6.6971e-03  6.5137e+01  3.4928e-03  3.1899e-03  1.1473e-03  0:00:01    7
  1994  3.5263e-03  2.2700e-03  6.6701e-03  6.6010e+01  3.5186e-03  3.2014e-03  1.1548e-03  0:00:00    6
  1995  3.5454e-03  2.3155e-03  6.6457e-03  6.6799e+01  3.5378e-03  3.2179e-03  1.1643e-03  0:00:01    5
  1996  3.5569e-03  2.3617e-03  6.6270e-03  6.7652e+01  3.5494e-03  3.2313e-03  1.1738e-03  0:00:01    4
  1997  3.5646e-03  2.4072e-03  6.6132e-03  6.8680e+01  3.5570e-03  3.2472e-03  1.1819e-03  0:00:01    3
  1998  3.5662e-03  2.4516e-03  6.6055e-03  6.9351e+01  3.5586e-03  3.2637e-03  1.1909e-03  0:00:00    2
  1999  3.5590e-03  2.4953e-03  6.6042e-03  6.9931e+01  3.5514e-03  3.2812e-03  1.2003e-03  0:00:00    1
  2000  3.5383e-03  2.5387e-03  6.6088e-03  7.0578e+01  3.5307e-03  3.2994e-03  1.2090e-03  0:00:00    0

> 
adjoint/                parallel/               server/
define/                 parametric-study/       solve/
display/                plot/                   surface/
exit                    preferences/            turbo-workflow/
file/                   print-license-usage     views/
mesh/                   report/

> /file/write-case-data project1
Fast-loading "C:\PROGRA~1\ANSYSI~1\v231\fluent\fluent23.1.0\\addons\afd\lib\hdfio.bin"
Done.

Writing to Engs-30669:"C:\Users\kebl7595\Desktop\CFD\Runs\Flap\test\project1.cas.h5" in NODE0 mode and compression level 1 ...
       24072 cells,     1 zone  ...
       80918 faces,     7 zones ...
       33000 nodes,     1 zone  ...
  Done.
Done.

Writing to Engs-30669:"C:\Users\kebl7595\Desktop\CFD\Runs\Flap\test\project1.dat.h5" in NODE0 mode and compression level 1 ...
  Writing results.
Done.

> /file/export/ascii "./surface.dat" wing () no pressure mach-number quit no

Writing "./surface.dat"...

Writing information to ascii file ...
Done.


> /report/forces/wall-forces y -0.35837 0.93358 0 y "Lift"

> /report/forces/wall-forces y 0.93358 0.35837 0 y "Drag"

> ;/exit

adjoint/                parallel/               server/
define/                 parametric-study/       solve/
display/                plot/                   surface/
exit                    preferences/            turbo-workflow/
file/                   print-license-usage     views/
mesh/                   report/

> 
> (cx-gui-do cx-set-list-tree-selections "NavigationPane*Frame2*Table1*List_Tree2" (list "Results|Graphics|Pathlines"))
(cx-gui-do cx-set-list-tree-selections "NavigationPane*Frame2*Table1*List_Tree2" (list "Results|Graphics|Pathlines"))
(cx-gui-do cx-activate-item "NavigationPane*Frame2*Table1*List_Tree2")
(cx-gui-do cx-set-list-tree-selections "NavigationPane*Frame2*Table1*List_Tree2" (list "Results|Graphics|Pathlines"))
(cx-gui-do cx-set-list-selections "Pathlines*Frame4*List3(Release from Surfaces)" '( 3))
(cx-gui-do cx-activate-item "Pathlines*Frame4*List3(Release from Surfaces)")
(cx-gui-do cx-activate-item "Pathlines*PanelButtons*PushButton1(OK)")

number tracked = 8024, escaped = 6854, incomplete = 1170
(cx-gui-do cx-activate-item "Pathlines*PanelButtons*PushButton2(Cancel)")
(cx-gui-do cx-activate-item "ToolBar*Pointer*translate")
(cx-use-window-id 51)
(dolly-camera -0.895563 0.955144 0)
(cx-use-window-id 51)
(dolly-camera -0.275105 -0.121873 0)
(cx-use-window-id 51)
(dolly-camera -0.0840994 0.221296 0)
/exit y

Posting ANSYS Product Improvement Program performance data 
Done.
Auto-Transcript Stop Time:  10:44:28, 22 May 2024 GMT Daylight Time 
Total Transcript Time: 1 Hour 3 Minute 27 Second.
