Auto-Transcript Start Time:  10:45:15, 21 May 2024 GMT Daylight Time 
Current Directory: "C:\Users\kebl7595\Desktop\CFD\Runs\Viscous\30 degree"

              Welcome to ANSYS Fluent 2023 R1

              Copyright 1987-2023 ANSYS, Inc. All Rights Reserved.
              Unauthorized use, distribution or duplication is prohibited.
              This product is subject to U.S. laws governing export and re-export.
              For full Legal Notice, see documentation.

Build Time: Nov 28 2022 09:52:02 EST  Build Id: 10208  
 
Connected License Server List:	1055@ansyslic.eng.ox.ac.uk

*********************************************
Info: Your license enables 4-way parallel execution.
For faster simulations, please start the application with the appropriate parallel options.
*********************************************


     --------------------------------------------------------------
     This is an academic version of ANSYS FLUENT. Usage of this product
     license is limited to the terms and conditions specified in your ANSYS
     license form, additional terms section.
     --------------------------------------------------------------
Host spawning Node 0 on machine "Engs-30669" (win64).

------------------------------------------------------------------------------------
ID    Hostname    Core  O.S.         PID    Vendor                                 
------------------------------------------------------------------------------------
n0    Engs-30669  1/32  Windows-x64  9044   13th Gen Intel(R) Core(TM) i9-13900    
host  Engs-30669        Windows-x64  27548  13th Gen Intel(R) Core(TM) i9-13900    

MPI Option Selected: intel
------------------------------------------------------------------------------------

Cleanup script file is C:\\Users\\kebl7595\\Desktop\\CFD\\Runs\\Viscous\\30 degree\\cleanup-fluent-Engs-30669-27548.bat
QA Service Message :
QA Services Agreement Enabled. This application is included in the scope of an ANSYS QA Services Agreement.
Posting ANSYS Product Improvement Program startup data
Done.

Reading journal file C:/Users/kebl7595/Desktop/CFD/Runs/Viscous/30 degree/project1.jou...

> /file/set-batch-options no no no 

> 
define/                 parametric-study/       solve/
display/                plot/                   surface/
exit                    preferences/            switch-to-meshing-mode
file/                   print-license-usage     turbo-workflow/
mesh/                   report/                 views/
parallel/               server/

> /file/import/cgns/mesh  "./project1.cgns"
Engs-30669 has other FLUENT parallel processes running.                       Process affinity not being set.

Importing "./project1.cgns"

Opening library "C:\\PROGRA~1\\ANSYSI~1\\v231\\fluent\\fluent23.1.0\\vki\\win64\\devtools4.4.6.dll"... done.

Read    17864 nodes
   12996 hexahedral cells, zone  1
    9462 quadrilateral wall faces, zone  2.
   33972 quadrilateral interior faces, zone  3.
     282 quadrilateral interface faces, zone  4.
       6 quadrilateral wall faces, zone  5.

Building...
     mesh
     materials,
     interface,
     domains,
     zones,
	default_exterior-1
	interface-default_subface
	default_interior-1
	default_subface
	default
     parallel,
The automatic selection for flux type has changed to Rhie-Chow: momentum based.

Done.


> 
adjoint/                parallel/               server/
define/                 parametric-study/       solve/
display/                plot/                   surface/
exit                    preferences/            turbo-workflow/
file/                   print-license-usage     views/
mesh/                   report/

> /define/models/solver/density-based-implicit yes

> 
adjoint/                parallel/               server/
define/                 parametric-study/       solve/
display/                plot/                   surface/
exit                    preferences/            turbo-workflow/
file/                   print-license-usage     views/
mesh/                   report/

> /define/models/energy? yes yes invalid command [yes]
yes

> /define/models/viscous/kw-standard? yes

> 
adjoint/                parallel/               server/
define/                 parametric-study/       solve/
display/                plot/                   surface/
exit                    preferences/            turbo-workflow/
file/                   print-license-usage     views/
mesh/                   report/

> /define/materials/change-create air air air is a fluid
yes 
Density
ideal-gas no data required.

no no no no no no

> 
adjoint/                parallel/               server/
define/                 parametric-study/       solve/
display/                plot/                   surface/
exit                    preferences/            turbo-workflow/
file/                   print-license-usage     views/
mesh/                   report/

> /mesh/modify-zones/sep-face-zone-angle 2 90 yes

 4332 faces in contiguous region 0
 228 faces in contiguous region 1
 342 faces in contiguous region 2
 4332 faces in contiguous region 3
 228 faces in contiguous region 4
 Separates zone 2 into 5 zone(s).
Updating new zone information...
   created new zone default_subface:010 from default_subface
   created new zone default_subface:009 from default_subface
   created new zone default_subface:008 from default_subface
   created new zone default_subface:007 from default_subface
done.

> 
adjoint/                parallel/               server/
define/                 parametric-study/       solve/
display/                plot/                   surface/
exit                    preferences/            turbo-workflow/
file/                   print-license-usage     views/
mesh/                   report/

> /define/boundary-conditions/zone-name  5   te

> /define/boundary-conditions/zone-name  7 wing

> /define/boundary-conditions/zone-name  2 sym1

> /define/boundary-conditions/zone-name  9 sym2

> 
adjoint/                parallel/               server/
define/                 parametric-study/       solve/
display/                plot/                   surface/
exit                    preferences/            turbo-workflow/
file/                   print-license-usage     views/
mesh/                   report/

> /define/boundary-conditions/zone-name  8 far1

> /define/boundary-conditions/zone-name 10 far2

> 
adjoint/                parallel/               server/
define/                 parametric-study/       solve/
display/                plot/                   surface/
exit                    preferences/            turbo-workflow/
file/                   print-license-usage     views/
mesh/                   report/

> /define/boundary-conditions/zone-type  8 pressure-far-field

> /define/boundary-conditions/zone-type 10 pressure-far-field

> /define/boundary-conditions/zone-type  2 symmetry

> /define/boundary-conditions/zone-type  9 symmetry

> 
adjoint/                parallel/               server/
define/                 parametric-study/       solve/
display/                plot/                   surface/
exit                    preferences/            turbo-workflow/
file/                   print-license-usage     views/
mesh/                   report/

> /define/boundary-conditions/pressure-far-field (far2 far1)
far1 no 0 no 0.1 no 300 yes no 0.86603 no 0.5 no 0. no yes 5 0.02

> /define/boundary-conditions/pressure-far-field (far2 far1)
far2 no 0 no 0.1 no 300 yes no 0.86603 no 0.5 no 0. no yes 5 0.02

> 
adjoint/                parallel/               server/
define/                 parametric-study/       solve/
display/                plot/                   surface/
exit                    preferences/            turbo-workflow/
file/                   print-license-usage     views/
mesh/                   report/

> /solve/initialize/compute-defaults/pressure-far-field (far2 far1)
far1

> /solve/initialize/initialize-flow

> 
adjoint/                parallel/               server/
define/                 parametric-study/       solve/
display/                plot/                   surface/
exit                    preferences/            turbo-workflow/
file/                   print-license-usage     views/
mesh/                   report/

> /solve/monitors/residual/convergence-criteria 1.e-9 1.e-9 1.e-9 1.e-9 1.e-9 1.e-9 1.e-9

> /solve/iterate 2000

  iter  continuity  x-velocity  y-velocity  z-velocity      energy           k       omega     time/iter
     1  1.0000e+00  1.0000e+00  1.0000e+00  1.0000e+00  1.0000e+00  1.7103e-01  1.2934e-01  0:33:19 1999
     2  4.9465e-01  4.5279e-01  4.6755e-01  1.0000e+00  4.9509e-01  1.2863e-01  1.0088e-01  0:26:38 1998
     3  2.5961e-01  2.1794e-01  2.2243e-01  8.8280e-01  2.5979e-01  1.0005e-01  8.1690e-02  0:21:18 1997
     4  1.5889e-01  1.3625e-01  1.1842e-01  6.4426e-01  1.5895e-01  8.0795e-02  6.7644e-02  0:23:41 1996
     5  1.1196e-01  9.9394e-02  7.5603e-02  5.3477e-01  1.1198e-01  6.8328e-02  5.7565e-02  0:18:56 1995
     6  8.8560e-02  7.3108e-02  5.3722e-02  5.7969e-01  8.8595e-02  5.8862e-02  5.0399e-02  0:15:09 1994
     7  7.5620e-02  5.5948e-02  4.0966e-02  6.3201e-01  7.5670e-02  5.1265e-02  4.4826e-02  0:12:07 1993
     8  6.7871e-02  4.5219e-02  3.3096e-02  6.5200e-01  6.7924e-02  4.5046e-02  4.0174e-02  0:09:41 1992
     9  6.3264e-02  3.8531e-02  2.8054e-02  6.5977e-01  6.3309e-02  3.9934e-02  3.6226e-02  0:07:45 1991
    10  6.0674e-02  3.4569e-02  2.4695e-02  6.5472e-01  6.0703e-02  3.5731e-02  3.2847e-02  0:06:11 1990
    11  5.9498e-02  3.2596e-02  2.2368e-02  6.4068e-01  5.9507e-02  3.2314e-02  2.9944e-02  0:11:35 1989

  iter  continuity  x-velocity  y-velocity  z-velocity      energy           k       omega     time/iter
    12  5.9358e-02  3.2044e-02  2.0754e-02  6.2502e-01  5.9345e-02  2.9523e-02  2.7442e-02  0:09:16 1988
    13  6.0038e-02  3.2463e-02  1.9688e-02  6.0974e-01  6.0006e-02  2.7183e-02  2.5310e-02  0:07:24 1987
    14  6.1365e-02  3.3573e-02  1.9038e-02  6.1237e-01  6.1313e-02  2.5203e-02  2.3465e-02  0:05:55 1986
    15  6.3183e-02  3.5163e-02  1.8786e-02  6.3005e-01  6.3111e-02  2.3516e-02  2.1840e-02  0:11:21 1985
    16  6.5362e-02  3.7013e-02  1.8875e-02  6.6138e-01  6.5270e-02  2.2076e-02  2.0400e-02  0:09:05 1984
    17  6.7795e-02  3.9132e-02  1.9240e-02  7.0066e-01  6.7682e-02  2.0823e-02  1.9138e-02  0:07:15 1983
    18  7.0358e-02  4.1299e-02  1.9844e-02  7.4773e-01  7.0222e-02  1.9707e-02  1.8015e-02  0:05:48 1982
    19  7.3002e-02  4.3617e-02  2.0595e-02  8.0468e-01  7.2840e-02  1.8736e-02  1.7007e-02  0:04:38 1981
    20  7.5619e-02  4.5822e-02  2.1523e-02  8.6917e-01  7.5429e-02  1.7889e-02  1.6095e-02  0:03:43 1980
    21  7.8092e-02  4.7816e-02  2.2643e-02  9.5048e-01  7.7870e-02  1.7146e-02  1.5275e-02  0:09:34 1979
    22  8.0302e-02  4.9268e-02  2.3938e-02  1.0342e+00  8.0045e-02  1.6492e-02  1.4530e-02  0:07:39 1978

  iter  continuity  x-velocity  y-velocity  z-velocity      energy           k       omega     time/iter
    23  8.2216e-02  5.0426e-02  2.5063e-02  1.1160e+00  8.1922e-02  1.5928e-02  1.3852e-02  0:06:07 1977
    24  8.3764e-02  5.1485e-02  2.6083e-02  1.1929e+00  8.3429e-02  1.5427e-02  1.3233e-02  0:04:53 1976
    25  8.4819e-02  5.2328e-02  2.6968e-02  1.2622e+00  8.4441e-02  1.4990e-02  1.2662e-02  0:03:55 1975
    26  8.5368e-02  5.2762e-02  2.7718e-02  1.3211e+00  8.4945e-02  1.4603e-02  1.2135e-02  0:03:08 1974
    27  8.5367e-02  5.2676e-02  2.8310e-02  1.3673e+00  8.4900e-02  1.4256e-02  1.1637e-02  0:02:30 1973
    28  8.4796e-02  5.2478e-02  2.8621e-02  1.3966e+00  8.4284e-02  1.3945e-02  1.1169e-02  0:08:34 1972
    29  8.3663e-02  5.2307e-02  2.8132e-02  1.4107e+00  8.3109e-02  1.3657e-02  1.0728e-02  0:06:51 1971
    30  8.2077e-02  5.1649e-02  2.7698e-02  1.4088e+00  8.1482e-02  1.3389e-02  1.0327e-02  0:05:29 1970
    31  8.0061e-02  5.0949e-02  2.7100e-02  1.3929e+00  7.9429e-02  1.3211e-02  9.9988e-03  0:04:23 1969
    32  7.7593e-02  5.0021e-02  2.6352e-02  1.3677e+00  7.6928e-02  1.2951e-02  9.6156e-03  0:03:30 1968
    33  7.4682e-02  4.8356e-02  2.5813e-02  1.3387e+00  7.3988e-02  1.2714e-02  9.2581e-03  0:02:48 1967

  iter  continuity  x-velocity  y-velocity  z-velocity      energy           k       omega     time/iter
    34  7.1406e-02  4.6684e-02  2.5270e-02  1.3160e+00  7.0688e-02  1.2540e-02  8.9289e-03  0:08:48 1966
    35  6.7867e-02  4.5179e-02  2.4777e-02  1.3041e+00  6.7130e-02  1.2392e-02  8.6404e-03  0:07:02 1965
    36  6.4104e-02  4.3640e-02  2.4261e-02  1.3076e+00  6.3353e-02  1.2271e-02  8.3838e-03  0:05:37 1964
    37  6.0221e-02  4.2102e-02  2.4559e-02  1.3258e+00  5.9460e-02  1.2212e-02  8.1555e-03  0:04:30 1963
    38  5.6242e-02  4.0577e-02  2.5369e-02  1.3551e+00  5.5477e-02  1.2161e-02  7.9819e-03  0:03:36 1962
    39  5.2203e-02  3.9059e-02  2.6661e-02  1.3905e+00  5.1437e-02  1.2174e-02  7.7802e-03  0:02:52 1961
    40  4.8115e-02  3.7049e-02  2.8434e-02  1.4242e+00  4.7351e-02  1.2209e-02  7.6415e-03  0:02:18 1960
    41  4.4071e-02  3.5427e-02  3.0548e-02  1.4516e+00  4.3315e-02  1.2311e-02  7.5315e-03  0:08:22 1959
    42  4.0149e-02  3.4428e-02  3.2879e-02  1.4691e+00  3.9403e-02  1.2475e-02  7.3973e-03  0:06:41 1958
    43  3.6387e-02  3.3817e-02  3.5516e-02  1.4723e+00  3.5655e-02  1.2604e-02  7.2830e-03  0:05:21 1957
    44  3.2840e-02  3.3725e-02  3.8365e-02  1.4591e+00  3.2127e-02  1.2885e-02  7.1947e-03  0:04:17 1956

  iter  continuity  x-velocity  y-velocity  z-velocity      energy           k       omega     time/iter
    45  2.9535e-02  3.4016e-02  4.1334e-02  1.4266e+00  2.8845e-02  1.3193e-02  7.1373e-03  0:03:25 1955
    46  2.6522e-02  3.4593e-02  4.4303e-02  1.3794e+00  2.5862e-02  1.3523e-02  7.0946e-03  0:02:44 1954
    47  2.3882e-02  3.5439e-02  4.7276e-02  1.3259e+00  2.3260e-02  1.3910e-02  7.0000e-03  0:08:42 1953
    48  2.1661e-02  3.6509e-02  5.0197e-02  1.2608e+00  2.1088e-02  1.4366e-02  6.8931e-03  0:06:57 1952
    49  1.9964e-02  3.7779e-02  5.2970e-02  1.1929e+00  1.9454e-02  1.4838e-02  6.8423e-03  0:05:34 1951
    50  1.8921e-02  3.9491e-02  5.5640e-02  1.1299e+00  1.8489e-02  1.5344e-02  6.7496e-03  0:04:27 1950
    51  1.8588e-02  4.1260e-02  5.8226e-02  1.0745e+00  1.8242e-02  1.5884e-02  6.6504e-03  0:03:33 1949
    52  1.8939e-02  4.3063e-02  6.0664e-02  1.0324e+00  1.8679e-02  1.6524e-02  6.5953e-03  0:02:51 1948
    53  1.9927e-02  4.4840e-02  6.2924e-02  1.0071e+00  1.9742e-02  1.7165e-02  6.5700e-03  0:02:16 1947
    54  2.1481e-02  4.6632e-02  6.4961e-02  9.9692e-01  2.1356e-02  1.7921e-02  6.5649e-03  0:08:18 1946
    55  2.3495e-02  4.8535e-02  6.6751e-02  1.0042e+00  2.3413e-02  1.8749e-02  6.5556e-03  0:06:38 1945

  iter  continuity  x-velocity  y-velocity  z-velocity      energy           k       omega     time/iter
    56  2.5879e-02  5.0474e-02  6.8309e-02  1.0199e+00  2.5824e-02  1.9641e-02  6.5775e-03  0:05:19 1944
    57  2.8543e-02  5.2412e-02  6.9635e-02  1.0419e+00  2.8503e-02  2.0704e-02  6.6450e-03  0:04:15 1943
    58  3.1436e-02  5.4377e-02  7.0729e-02  1.0667e+00  3.1403e-02  2.1991e-02  6.6762e-03  0:03:24 1942
    59  3.4539e-02  5.6429e-02  7.1604e-02  1.0900e+00  3.4507e-02  2.3197e-02  6.7525e-03  0:02:43 1941
    60  3.7856e-02  5.8404e-02  7.2329e-02  1.1132e+00  3.7820e-02  2.4804e-02  6.8245e-03  0:08:38 1940
    61  4.1346e-02  6.0459e-02  7.2827e-02  1.1332e+00  4.1303e-02  2.6542e-02  6.8741e-03  0:06:54 1939
    62  4.4902e-02  6.2487e-02  7.3084e-02  1.1487e+00  4.4852e-02  2.8143e-02  6.8571e-03  0:05:31 1938
    63  4.8496e-02  6.4091e-02  7.3263e-02  1.1700e+00  4.8440e-02  2.9148e-02  6.8723e-03  0:04:25 1937
    64  5.1980e-02  6.5493e-02  7.3250e-02  1.1936e+00  5.1917e-02  3.0703e-02  6.9253e-03  0:03:32 1936
    65  5.5062e-02  6.6696e-02  7.2923e-02  1.2148e+00  5.4996e-02  3.2060e-02  6.9811e-03  0:02:49 1935
    66  5.7584e-02  6.7386e-02  7.2239e-02  1.2350e+00  5.7516e-02  3.3666e-02  6.9993e-03  0:08:42 1934

  iter  continuity  x-velocity  y-velocity  z-velocity      energy           k       omega     time/iter
    67  5.9664e-02  6.7586e-02  7.1165e-02  1.2515e+00  5.9593e-02  3.4404e-02  6.9896e-03  0:06:58 1933
    68  6.1167e-02  6.7214e-02  6.9792e-02  1.2566e+00  6.1092e-02  3.4978e-02  7.0185e-03  0:05:34 1932
    69  6.2221e-02  6.7265e-02  6.7713e-02  1.2605e+00  6.2141e-02  3.5643e-02  7.0292e-03  0:04:27 1931
    70  6.3033e-02  6.6378e-02  6.5685e-02  1.2537e+00  6.2943e-02  3.6002e-02  7.0170e-03  0:03:33 1930
    71  6.3463e-02  6.4973e-02  6.3466e-02  1.2342e+00  6.3360e-02  3.6623e-02  7.0288e-03  0:02:51 1929
    72  6.3512e-02  6.3397e-02  6.1050e-02  1.2090e+00  6.3390e-02  3.7319e-02  7.0037e-03  0:02:16 1928
    73  6.3126e-02  6.1785e-02  5.8493e-02  1.1763e+00  6.2980e-02  3.8105e-02  6.9055e-03  0:08:15 1927
    74  6.2129e-02  6.0085e-02  5.5945e-02  1.1580e+00  6.1951e-02  3.9043e-02  6.8572e-03  0:06:35 1926
    75  6.0587e-02  5.8334e-02  5.3587e-02  1.1435e+00  6.0372e-02  3.9817e-02  6.8015e-03  0:05:16 1925
    76  5.8544e-02  5.6808e-02  5.1605e-02  1.1408e+00  5.8285e-02  4.0089e-02  6.7424e-03  0:04:13 1924
    77  5.6219e-02  5.5727e-02  5.0320e-02  1.1401e+00  5.5912e-02  4.0466e-02  6.7182e-03  0:03:22 1923

  iter  continuity  x-velocity  y-velocity  z-velocity      energy           k       omega     time/iter
    78  5.3546e-02  5.4888e-02  4.9593e-02  1.1444e+00  5.3190e-02  4.1156e-02  6.7041e-03  0:02:42 1922
    79  5.0487e-02  5.4155e-02  4.9570e-02  1.1558e+00  5.0078e-02  4.1830e-02  6.6978e-03  0:08:33 1921
    80  4.7194e-02  5.4228e-02  5.0297e-02  1.1727e+00  4.6733e-02  4.2172e-02  6.6876e-03  0:06:51 1920
    81  4.3828e-02  5.4023e-02  5.2040e-02  1.1943e+00  4.3317e-02  4.2622e-02  6.6371e-03  0:05:28 1919
    82  4.0524e-02  5.3665e-02  5.4010e-02  1.2232e+00  3.9972e-02  4.2909e-02  6.5437e-03  0:04:22 1918
    83  3.7449e-02  5.2999e-02  5.6311e-02  1.2576e+00  3.6868e-02  4.2851e-02  6.4903e-03  0:03:30 1917
    84  3.4861e-02  5.2134e-02  5.8747e-02  1.2843e+00  3.4271e-02  4.2607e-02  6.4528e-03  0:02:48 1916
    85  3.2856e-02  5.0986e-02  6.1204e-02  1.3067e+00  3.2284e-02  4.2544e-02  6.3997e-03  0:08:37 1915
    86  3.1290e-02  4.9545e-02  6.3317e-02  1.3199e+00  3.0757e-02  4.2693e-02  6.3766e-03  0:06:54 1914
    87  3.0271e-02  4.7986e-02  6.5025e-02  1.3276e+00  2.9797e-02  4.2787e-02  6.3926e-03  0:05:31 1913
    88  2.9760e-02  4.6353e-02  6.6493e-02  1.3233e+00  2.9361e-02  4.2521e-02  6.3809e-03  0:04:24 1912

  iter  continuity  x-velocity  y-velocity  z-velocity      energy           k       omega     time/iter
    89  2.9765e-02  4.4791e-02  6.7633e-02  1.3070e+00  2.9452e-02  4.1675e-02  6.3066e-03  0:03:31 1911
    90  3.0116e-02  4.3514e-02  6.8350e-02  1.2830e+00  2.9890e-02  4.0846e-02  6.2646e-03  0:02:49 1910
    91  3.0695e-02  4.2016e-02  6.8579e-02  1.2490e+00  3.0549e-02  4.1440e-02  6.2410e-03  0:02:15 1909
    92  3.1291e-02  4.0559e-02  6.8431e-02  1.1944e+00  3.1213e-02  4.1375e-02  6.2111e-03  0:08:10 1908
    93  3.1723e-02  3.9535e-02  6.8214e-02  1.1254e+00  3.1702e-02  4.0851e-02  6.2012e-03  0:06:32 1907
    94  3.2338e-02  3.8800e-02  6.7627e-02  1.0581e+00  3.2362e-02  4.1467e-02  6.2566e-03  0:05:13 1906
    95  3.3041e-02  3.8308e-02  6.6590e-02  9.9518e-01  3.3100e-02  4.1803e-02  6.2670e-03  0:04:10 1905
    96  3.3803e-02  3.8072e-02  6.5095e-02  1.3974e+00  3.3887e-02  4.1231e-02  6.2620e-03  0:03:20 1904
    97  3.4604e-02  3.8102e-02  6.3211e-02  1.3767e+00  3.4704e-02  4.0432e-02  6.2519e-03  0:02:40 1903
    98  3.5237e-02  3.8358e-02  6.1070e-02  1.3644e+00  3.5348e-02  4.0205e-02  6.2673e-03  0:08:28 1902
    99  3.5880e-02  3.8760e-02  5.8794e-02  1.2892e+00  3.5996e-02  4.0807e-02  6.2158e-03  0:06:46 1901

  iter  continuity  x-velocity  y-velocity  z-velocity      energy           k       omega     time/iter
   100  3.6445e-02  3.9109e-02  5.6436e-02  1.2677e+00  3.6559e-02  4.1244e-02  6.2405e-03  0:05:25 1900
   101  3.6789e-02  3.9371e-02  5.4011e-02  1.1705e+00  3.6898e-02  4.1876e-02  6.2805e-03  0:04:20 1899
   102  3.6962e-02  3.8850e-02  5.1765e-02  1.1048e+00  3.7063e-02  4.2142e-02  6.2540e-03  0:03:28 1898
   103  3.6861e-02  3.8631e-02  4.9405e-02  1.0669e+00  3.6950e-02  4.1933e-02  6.2481e-03  0:02:46 1897
   104  3.6682e-02  3.8759e-02  4.6851e-02  1.0658e+00  3.6758e-02  4.2274e-02  6.2365e-03  0:02:13 1896
   105  3.6699e-02  3.9093e-02  4.4218e-02  1.1038e+00  3.6757e-02  4.2844e-02  6.1720e-03  0:08:05 1895
   106  3.6962e-02  3.9494e-02  4.1559e-02  1.1651e+00  3.7001e-02  4.2624e-02  6.1070e-03  0:06:28 1894
   107  3.7158e-02  3.9767e-02  3.8899e-02  1.2370e+00  3.7178e-02  4.2495e-02  5.9790e-03  0:05:10 1893
   108  3.6803e-02  3.9700e-02  3.6260e-02  1.3142e+00  3.6806e-02  4.1506e-02  5.7947e-03  0:04:08 1892
   109  3.5897e-02  3.9318e-02  3.3624e-02  1.3958e+00  3.5886e-02  4.0225e-02  5.6346e-03  0:03:18 1891
   110  3.4647e-02  3.8660e-02  3.1083e-02  1.4784e+00  3.4623e-02  3.8804e-02  5.4740e-03  0:02:39 1890

  iter  continuity  x-velocity  y-velocity  z-velocity      energy           k       omega     time/iter
   111  3.3109e-02  3.7798e-02  2.8645e-02  1.5616e+00  3.3074e-02  3.7832e-02  5.3263e-03  0:02:07 1889
   112  3.1505e-02  3.6739e-02  2.6378e-02  1.6430e+00  3.1460e-02  3.6137e-02  5.1706e-03  0:07:59 1888
   113  2.9752e-02  3.5553e-02  2.4303e-02  1.7186e+00  2.9699e-02  3.4402e-02  5.0031e-03  0:06:23 1887
   114  2.8008e-02  3.4256e-02  2.2479e-02  1.7828e+00  2.7948e-02  3.3276e-02  4.8842e-03  0:05:06 1886
   115  2.6239e-02  3.2888e-02  2.0952e-02  1.8405e+00  2.6173e-02  3.2580e-02  4.7875e-03  0:04:05 1885
   116  2.4623e-02  3.1523e-02  1.9729e-02  1.8944e+00  2.4554e-02  3.2250e-02  4.6813e-03  0:03:16 1884
   117  2.3365e-02  3.0218e-02  1.8837e-02  1.9486e+00  2.3295e-02  3.1698e-02  4.5581e-03  0:02:37 1883
   118  2.2346e-02  2.8940e-02  1.8317e-02  1.9999e+00  2.2276e-02  3.0821e-02  4.3771e-03  0:02:05 1882
   119  2.1399e-02  2.7626e-02  1.8199e-02  2.0470e+00  2.1331e-02  3.0073e-02  4.1858e-03  0:07:56 1881
   120  2.0355e-02  2.6561e-02  1.8312e-02  2.0852e+00  2.0291e-02  2.9566e-02  4.0333e-03  0:06:21 1880
   121  1.9065e-02  2.5552e-02  1.8673e-02  2.1112e+00  1.9008e-02  2.8858e-02  3.8917e-03  0:05:04 1879

  iter  continuity  x-velocity  y-velocity  z-velocity      energy           k       omega     time/iter
   122  1.7289e-02  2.4496e-02  1.9162e-02  2.1235e+00  1.7240e-02  2.8397e-02  3.7826e-03  0:04:03 1878
   123  1.5176e-02  2.3167e-02  1.9714e-02  2.3806e+00  1.5136e-02  2.8662e-02  3.6926e-03  0:03:15 1877
   124  1.3103e-02  2.2634e-02  2.0259e-02  2.3114e+00  1.3076e-02  2.9143e-02  3.6594e-03  0:02:36 1876
   125  1.1303e-02  2.2500e-02  2.0835e-02  2.2353e+00  1.1291e-02  3.0071e-02  3.6501e-03  0:02:04 1875
   126  1.0398e-02  2.2519e-02  2.1376e-02  2.2136e+00  1.0401e-02  3.1207e-02  3.6592e-03  0:07:54 1874
   127  1.1123e-02  2.2718e-02  2.1818e-02  2.2286e+00  1.1133e-02  3.2545e-02  3.6830e-03  0:06:19 1873
   128  1.2834e-02  2.3076e-02  2.2116e-02  2.2534e+00  1.2844e-02  3.4329e-02  3.7016e-03  0:05:03 1872
   129  1.4189e-02  2.3526e-02  2.2269e-02  2.2719e+00  1.4198e-02  3.5758e-02  3.6875e-03  0:04:02 1871
   130  1.4662e-02  2.4056e-02  2.2277e-02  2.2653e+00  1.4672e-02  3.6108e-02  3.6951e-03  0:03:14 1870
   131  1.4595e-02  2.4622e-02  2.2151e-02  2.2227e+00  1.4608e-02  3.6303e-02  3.7457e-03  0:02:35 1869
   132  1.4363e-02  2.5197e-02  2.1903e-02  2.1471e+00  1.4378e-02  3.6910e-02  3.8189e-03  0:08:18 1868

  iter  continuity  x-velocity  y-velocity  z-velocity      energy           k       omega     time/iter
   133  1.4208e-02  2.5762e-02  2.1542e-02  2.0551e+00  1.4222e-02  3.7055e-02  3.8464e-03  0:06:38 1867
   134  1.4158e-02  2.6312e-02  2.1060e-02  1.9683e+00  1.4169e-02  3.6778e-02  3.8392e-03  0:05:18 1866
   135  1.4145e-02  2.6869e-02  2.0468e-02  1.8985e+00  1.4153e-02  3.6699e-02  3.8575e-03  0:04:14 1865
   136  1.4085e-02  2.7192e-02  1.9875e-02  1.8473e+00  1.4088e-02  3.6052e-02  3.9107e-03  0:03:23 1864
   137  1.3919e-02  2.7347e-02  1.9199e-02  1.8116e+00  1.3917e-02  3.5420e-02  3.8552e-03  0:02:43 1863
   138  1.3639e-02  2.7383e-02  1.8450e-02  1.7857e+00  1.3630e-02  3.4247e-02  3.8269e-03  0:02:10 1862
   139  1.3265e-02  2.7370e-02  1.7652e-02  1.7648e+00  1.3249e-02  3.3337e-02  3.7698e-03  0:07:56 1861
   140  1.2846e-02  2.7376e-02  1.6832e-02  1.7452e+00  1.2823e-02  3.1935e-02  3.7146e-03  0:06:21 1860
   141  1.2446e-02  2.7293e-02  1.6081e-02  1.7229e+00  1.2414e-02  3.0882e-02  3.6495e-03  0:05:04 1859
   142  1.2118e-02  2.7074e-02  1.5420e-02  1.7029e+00  1.2078e-02  2.9807e-02  3.6001e-03  0:04:03 1858
   143  1.1890e-02  2.6605e-02  1.4850e-02  1.6896e+00  1.1842e-02  2.8437e-02  3.5249e-03  0:03:15 1857

  iter  continuity  x-velocity  y-velocity  z-velocity      energy           k       omega     time/iter
   144  1.1797e-02  2.6038e-02  1.4380e-02  1.6874e+00  1.1741e-02  2.6737e-02  3.4699e-03  0:02:36 1856
   145  1.1842e-02  2.5477e-02  1.4015e-02  1.7006e+00  1.1779e-02  2.5872e-02  3.3729e-03  0:02:04 1855
   146  1.2008e-02  2.4914e-02  1.3756e-02  1.7277e+00  1.1940e-02  2.5458e-02  3.2937e-03  0:07:50 1854
   147  1.2278e-02  2.4327e-02  1.3610e-02  1.7680e+00  1.2207e-02  2.4907e-02  3.1907e-03  0:06:16 1853
   148  1.2627e-02  2.3722e-02  1.3502e-02  1.8166e+00  1.2555e-02  2.4287e-02  3.1035e-03  0:05:01 1852
   149  1.3034e-02  2.3085e-02  1.3476e-02  1.8666e+00  1.2963e-02  2.3867e-02  3.0409e-03  0:04:00 1851
   150  1.3330e-02  2.2340e-02  1.3498e-02  1.9122e+00  1.3261e-02  2.3648e-02  2.9897e-03  0:03:12 1850
   151  1.3338e-02  2.1546e-02  1.3577e-02  1.9467e+00  1.3272e-02  2.3073e-02  2.9146e-03  0:02:34 1849
   152  1.3091e-02  2.0717e-02  1.3661e-02  1.9710e+00  1.3029e-02  2.2537e-02  2.8354e-03  0:08:12 1848
   153  1.2666e-02  1.9829e-02  1.3738e-02  1.9911e+00  1.2609e-02  2.1714e-02  2.7687e-03  0:06:34 1847
   154  1.2124e-02  1.8902e-02  1.3802e-02  1.9877e+00  1.2072e-02  2.0838e-02  2.7255e-03  0:05:15 1846

  iter  continuity  x-velocity  y-velocity  z-velocity      energy           k       omega     time/iter
   155  1.1618e-02  1.8029e-02  1.3864e-02  1.9817e+00  1.1574e-02  2.0224e-02  2.6645e-03  0:04:12 1845
   156  1.1217e-02  1.7212e-02  1.3898e-02  1.9709e+00  1.1182e-02  1.9831e-02  2.6190e-03  0:03:21 1844
   157  1.0931e-02  1.6451e-02  1.3899e-02  1.9535e+00  1.0904e-02  1.9634e-02  2.5682e-03  0:02:41 1843
   158  1.0796e-02  1.5772e-02  1.3876e-02  1.9470e+00  1.0778e-02  1.9353e-02  2.5292e-03  0:02:09 1842
   159  1.0841e-02  1.5187e-02  1.3823e-02  1.9388e+00  1.0832e-02  1.9114e-02  2.5554e-03  0:01:43 1841
   160  1.1013e-02  1.4728e-02  1.3740e-02  1.9321e+00  1.1011e-02  1.8574e-02  2.4799e-03  0:07:30 1840
   161  1.1272e-02  1.4408e-02  1.3638e-02  1.9289e+00  1.1276e-02  1.7913e-02  2.4170e-03  0:06:00 1839
   162  1.1560e-02  1.4215e-02  1.3529e-02  1.9278e+00  1.1569e-02  1.7708e-02  2.3790e-03  0:04:48 1838
   163  1.1863e-02  1.4167e-02  1.3416e-02  1.9312e+00  1.1874e-02  1.7568e-02  2.3621e-03  0:03:50 1837
   164  1.2156e-02  1.4298e-02  1.3304e-02  1.9340e+00  1.2169e-02  1.7824e-02  2.3632e-03  0:03:04 1836
   165  1.2389e-02  1.4582e-02  1.3185e-02  1.9347e+00  1.2403e-02  1.8495e-02  2.3351e-03  0:02:27 1835

  iter  continuity  x-velocity  y-velocity  z-velocity      energy           k       omega     time/iter
   166  1.2490e-02  1.4918e-02  1.3078e-02  1.9297e+00  1.2503e-02  1.9200e-02  2.3483e-03  0:08:04 1834
   167  1.2463e-02  1.5268e-02  1.2930e-02  1.9114e+00  1.2476e-02  1.9968e-02  2.3789e-03  0:06:27 1833
   168  1.2335e-02  1.5572e-02  1.2732e-02  1.8873e+00  1.2347e-02  2.0716e-02  2.4104e-03  0:05:10 1832
   169  1.2101e-02  1.5807e-02  1.2486e-02  1.8450e+00  1.2111e-02  2.1238e-02  2.4297e-03  0:04:08 1831
   170  1.1783e-02  1.5969e-02  1.2183e-02  1.8040e+00  1.1791e-02  2.1662e-02  2.4836e-03  0:03:18 1830
   171  1.1401e-02  1.6041e-02  1.1807e-02  1.7597e+00  1.1406e-02  2.2224e-02  2.5475e-03  0:02:38 1829
   172  1.0990e-02  1.6000e-02  1.1350e-02  1.7060e+00  1.0992e-02  2.3295e-02  2.5875e-03  0:02:07 1828
   173  1.0580e-02  1.5838e-02  1.0818e-02  1.6477e+00  1.0577e-02  2.4028e-02  2.6004e-03  0:01:41 1827
   174  1.0206e-02  1.5551e-02  1.0232e-02  1.5886e+00  1.0198e-02  2.3957e-02  2.6167e-03  0:07:26 1826
   175  9.9059e-03  1.5154e-02  9.6056e-03  1.5323e+00  9.8933e-03  2.3733e-02  2.5930e-03  0:05:57 1825
   176  9.6957e-03  1.4677e-02  8.8790e-03  1.4857e+00  9.6780e-03  2.3200e-02  2.5651e-03  0:04:45 1824

  iter  continuity  x-velocity  y-velocity  z-velocity      energy           k       omega     time/iter
   177  9.6126e-03  1.4136e-02  8.2046e-03  1.4536e+00  9.5899e-03  2.3097e-02  2.5306e-03  0:03:48 1823
   178  9.6583e-03  1.3576e-02  7.5521e-03  1.4227e+00  9.6312e-03  2.2457e-02  2.5057e-03  0:03:02 1822
   179  9.8227e-03  1.2823e-02  7.0073e-03  1.3954e+00  9.7920e-03  2.2665e-02  2.4911e-03  0:02:26 1821
   180  1.0075e-02  1.2104e-02  6.5189e-03  1.3835e+00  1.0042e-02  2.3197e-02  2.5037e-03  0:08:01 1820
   181  1.0393e-02  1.1508e-02  6.1171e-03  1.3802e+00  1.0358e-02  2.4010e-02  2.4719e-03  0:06:24 1819
   182  1.0735e-02  1.1003e-02  5.8785e-03  1.3851e+00  1.0699e-02  2.4204e-02  2.4321e-03  0:05:07 1818
   183  1.1060e-02  1.0535e-02  5.8052e-03  1.3842e+00  1.1023e-02  2.4361e-02  2.4248e-03  0:04:06 1817
   184  1.1362e-02  1.0174e-02  5.8832e-03  1.3836e+00  1.1326e-02  2.4710e-02  2.4021e-03  0:03:16 1816
   185  1.1595e-02  9.9165e-03  6.0822e-03  1.3854e+00  1.1559e-02  2.5569e-02  2.3859e-03  0:02:37 1815
   186  1.1706e-02  9.7316e-03  6.3661e-03  1.3936e+00  1.1671e-02  2.6333e-02  2.3813e-03  0:02:06 1814
   187  1.1747e-02  9.6204e-03  6.6962e-03  1.4086e+00  1.1714e-02  2.7343e-02  2.3986e-03  0:01:40 1813

  iter  continuity  x-velocity  y-velocity  z-velocity      energy           k       omega     time/iter
   188  1.1701e-02  9.5799e-03  7.0505e-03  1.4231e+00  1.1669e-02  2.7533e-02  2.4192e-03  0:07:23 1812
   189  1.1538e-02  9.6145e-03  7.4014e-03  1.4218e+00  1.1508e-02  2.7844e-02  2.4308e-03  0:05:54 1811
   190  1.1276e-02  9.6862e-03  7.7127e-03  1.4110e+00  1.1248e-02  2.7934e-02  2.4463e-03  0:04:43 1810
   191  1.0908e-02  9.7784e-03  7.9834e-03  1.3815e+00  1.0882e-02  2.7650e-02  2.4512e-03  0:03:46 1809
   192  1.0439e-02  9.8970e-03  8.2113e-03  1.3385e+00  1.0416e-02  2.7859e-02  2.4603e-03  0:03:01 1808
   193  9.8368e-03  1.0004e-02  8.3965e-03  1.2815e+00  9.8155e-03  2.7704e-02  2.4500e-03  0:02:25 1807
   194  9.1501e-03  1.0110e-02  8.5393e-03  1.2210e+00  9.1312e-03  2.7417e-02  2.4160e-03  0:01:56 1806
   195  8.5320e-03  1.0193e-02  8.6454e-03  1.1696e+00  8.5151e-03  2.7125e-02  2.3781e-03  0:07:33 1805
   196  8.0946e-03  1.0279e-02  8.7230e-03  1.1359e+00  8.0792e-03  2.6625e-02  2.3361e-03  0:06:03 1804
   197  7.9028e-03  1.0377e-02  8.7771e-03  1.1334e+00  7.8883e-03  2.5680e-02  2.3090e-03  0:04:50 1803
   198  7.9613e-03  1.0521e-02  8.8153e-03  1.1641e+00  7.9468e-03  2.4824e-02  2.2639e-03  0:03:52 1802

  iter  continuity  x-velocity  y-velocity  z-velocity      energy           k       omega     time/iter
   199  8.2367e-03  1.0730e-02  8.8640e-03  1.2074e+00  8.2215e-03  2.4292e-02  2.2163e-03  0:03:05 1801
   200  8.6742e-03  1.0971e-02  8.9058e-03  1.2697e+00  8.6576e-03  2.3317e-02  2.1616e-03  0:02:28 1800
   201  9.2061e-03  1.1256e-02  8.9459e-03  1.3353e+00  9.1876e-03  2.2381e-02  2.1094e-03  0:01:58 1799
   202  9.7766e-03  1.1573e-02  8.9684e-03  1.4069e+00  9.7562e-03  2.1529e-02  2.0713e-03  0:07:34 1798
   203  1.0332e-02  1.1918e-02  9.0085e-03  1.4712e+00  1.0309e-02  2.0744e-02  2.0191e-03  0:06:03 1797
   204  1.0809e-02  1.2290e-02  9.0351e-03  1.5320e+00  1.0785e-02  2.0378e-02  2.0465e-03  0:04:50 1796
   205  1.1160e-02  1.2690e-02  9.0914e-03  1.5781e+00  1.1133e-02  2.0181e-02  1.9914e-03  0:03:52 1795
   206  1.1367e-02  1.3099e-02  9.1330e-03  1.6154e+00  1.1338e-02  1.9467e-02  1.9217e-03  0:03:06 1794
   207  1.1465e-02  1.3514e-02  9.1518e-03  1.6411e+00  1.1434e-02  1.8780e-02  1.8636e-03  0:02:28 1793
   208  1.1466e-02  1.3914e-02  9.1569e-03  1.6518e+00  1.1432e-02  1.8351e-02  1.8088e-03  0:01:59 1792
   209  1.1377e-02  1.4271e-02  9.1551e-03  1.6547e+00  1.1341e-02  1.7890e-02  1.7827e-03  0:07:33 1791

  iter  continuity  x-velocity  y-velocity  z-velocity      energy           k       omega     time/iter
   210  1.1230e-02  1.4581e-02  9.1391e-03  1.6516e+00  1.1191e-02  1.7619e-02  1.7612e-03  0:06:02 1790
   211  1.1054e-02  1.4848e-02  9.1107e-03  1.6441e+00  1.1012e-02  1.7969e-02  1.7640e-03  0:04:50 1789
   212  1.0854e-02  1.5035e-02  9.0708e-03  1.6367e+00  1.0809e-02  1.8479e-02  1.7582e-03  0:03:52 1788
   213  1.0643e-02  1.5169e-02  9.0090e-03  1.6266e+00  1.0596e-02  1.9098e-02  1.7755e-03  0:03:05 1787
   214  1.0433e-02  1.5228e-02  8.9321e-03  1.6161e+00  1.0383e-02  1.9762e-02  1.7802e-03  0:02:28 1786
   215  1.0223e-02  1.5194e-02  8.8055e-03  1.6002e+00  1.0171e-02  2.0283e-02  1.7831e-03  0:01:58 1785
   216  1.0023e-02  1.5131e-02  8.7041e-03  1.5807e+00  9.9695e-03  2.1054e-02  1.7898e-03  0:07:31 1784
   217  9.8192e-03  1.4991e-02  8.6180e-03  1.5624e+00  9.7648e-03  2.1710e-02  1.8046e-03  0:06:01 1783
   218  9.6133e-03  1.4759e-02  8.5696e-03  1.5480e+00  9.5589e-03  2.2053e-02  1.7996e-03  0:04:49 1782
   219  9.4032e-03  1.4478e-02  8.5693e-03  1.5366e+00  9.3496e-03  2.2369e-02  1.8256e-03  0:03:51 1781
   220  9.1863e-03  1.4159e-02  8.5786e-03  1.5254e+00  9.1345e-03  2.3360e-02  1.8505e-03  0:03:05 1780

  iter  continuity  x-velocity  y-velocity  z-velocity      energy           k       omega     time/iter
   221  8.9505e-03  1.3818e-02  8.5290e-03  1.5137e+00  8.9012e-03  2.3881e-02  1.8609e-03  0:02:28 1779
   222  8.7231e-03  1.3433e-02  8.5709e-03  1.5006e+00  8.6774e-03  2.4257e-02  1.8557e-03  0:07:54 1778
   223  8.5139e-03  1.3000e-02  8.6455e-03  1.4836e+00  8.4725e-03  2.3630e-02  1.8448e-03  0:06:19 1777
   224  8.3285e-03  1.2580e-02  8.7419e-03  1.4643e+00  8.2922e-03  2.2799e-02  1.8538e-03  0:05:03 1776
   225  8.1785e-03  1.2170e-02  8.8565e-03  1.4365e+00  8.1478e-03  2.1730e-02  1.8821e-03  0:04:02 1775
   226  8.0649e-03  1.1815e-02  8.9777e-03  1.4041e+00  8.0400e-03  2.0881e-02  1.9757e-03  0:03:14 1774
   227  8.0132e-03  1.1550e-02  9.0926e-03  1.3713e+00  7.9942e-03  2.0584e-02  1.9603e-03  0:02:35 1773
   228  8.0245e-03  1.1342e-02  9.2063e-03  1.3383e+00  8.0111e-03  2.0074e-02  1.9538e-03  0:07:58 1772
   229  8.0676e-03  1.1155e-02  9.2872e-03  1.3045e+00  8.0590e-03  1.9836e-02  1.9468e-03  0:06:22 1771
   230  8.1391e-03  1.1088e-02  9.3522e-03  1.2670e+00  8.1347e-03  1.9693e-02  1.9419e-03  0:05:06 1770
   231  8.2184e-03  1.1161e-02  9.4342e-03  1.2257e+00  8.2171e-03  1.9428e-02  1.9361e-03  0:04:04 1769

  iter  continuity  x-velocity  y-velocity  z-velocity      energy           k       omega     time/iter
   232  8.3050e-03  1.1250e-02  9.4715e-03  1.1794e+00  8.3057e-03  1.9832e-02  1.9223e-03  0:03:15 1768
   233  8.3704e-03  1.1327e-02  9.4433e-03  1.1251e+00  8.3721e-03  1.9892e-02  1.8970e-03  0:02:36 1767
   234  8.4103e-03  1.1372e-02  9.3516e-03  1.0654e+00  8.4118e-03  1.9727e-02  1.8677e-03  0:02:05 1766
   235  8.4313e-03  1.1469e-02  9.2046e-03  1.0001e+00  8.4317e-03  1.9415e-02  1.8215e-03  0:07:33 1765
   236  8.4403e-03  1.1556e-02  9.0140e-03  9.3291e-01  8.4387e-03  1.9106e-02  1.7741e-03  0:06:02 1764
   237  8.4570e-03  1.1618e-02  8.7782e-03  8.6582e-01  8.4525e-03  1.8802e-02  1.7390e-03  0:04:50 1763
   238  8.4997e-03  1.1649e-02  8.5072e-03  7.8613e-01  8.4915e-03  1.8420e-02  1.7004e-03  0:03:51 1762
   239  8.5849e-03  1.1658e-02  8.2028e-03  7.1979e-01  8.5722e-03  1.7965e-02  1.6467e-03  0:03:05 1761
   240  8.7119e-03  1.1646e-02  7.8608e-03  6.6188e-01  8.6941e-03  1.7228e-02  1.5835e-03  0:02:28 1760
   241  8.8730e-03  1.1598e-02  7.5229e-03  6.2614e-01  8.8499e-03  1.6348e-02  1.5246e-03  0:01:58 1759
   242  9.0635e-03  1.1520e-02  7.1924e-03  6.1725e-01  9.0349e-03  1.5251e-02  1.4648e-03  0:07:26 1758

  iter  continuity  x-velocity  y-velocity  z-velocity      energy           k       omega     time/iter
   243  9.2696e-03  1.1418e-02  6.8818e-03  6.2694e-01  9.2357e-03  1.4637e-02  1.3988e-03  0:05:57 1757
   244  9.4857e-03  1.1292e-02  6.6078e-03  6.5009e-01  9.4467e-03  1.4454e-02  1.3497e-03  0:04:45 1756
   245  9.6852e-03  1.1153e-02  6.3844e-03  6.8106e-01  9.6416e-03  1.4545e-02  1.3145e-03  0:03:48 1755
   246  9.8448e-03  1.1004e-02  6.2247e-03  7.1020e-01  9.7969e-03  1.4744e-02  1.2903e-03  0:03:02 1754
   247  9.9544e-03  1.0843e-02  6.1411e-03  7.2978e-01  9.9028e-03  1.4833e-02  1.2537e-03  0:02:26 1753
   248  1.0011e-02  1.0665e-02  6.1335e-03  7.3836e-01  9.9565e-03  1.4776e-02  1.2273e-03  0:01:57 1752
   249  1.0015e-02  1.0349e-02  6.2361e-03  7.3062e-01  9.9569e-03  1.4515e-02  1.2051e-03  0:07:23 1751
   250  9.9447e-03  1.0067e-02  6.3774e-03  7.1724e-01  9.8847e-03  1.4204e-02  1.1815e-03  0:05:55 1750
   251  9.7860e-03  9.8267e-03  6.5360e-03  6.9312e-01  9.7242e-03  1.3819e-02  1.1702e-03  0:04:43 1749
   252  9.5663e-03  9.5926e-03  6.7328e-03  6.6345e-01  9.5031e-03  1.3281e-02  1.1601e-03  0:03:47 1748
   253  9.2867e-03  9.3522e-03  6.9641e-03  6.3592e-01  9.2227e-03  1.2946e-02  1.1613e-03  0:03:01 1747

  iter  continuity  x-velocity  y-velocity  z-velocity      energy           k       omega     time/iter
   254  8.9827e-03  9.1313e-03  7.2212e-03  6.1875e-01  8.9186e-03  1.2450e-02  1.1574e-03  0:02:25 1746
   255  8.6080e-03  8.9155e-03  7.4970e-03  6.1877e-01  8.5443e-03  1.1837e-02  1.1586e-03  0:01:56 1745
   256  8.2219e-03  8.7314e-03  7.7753e-03  6.4069e-01  8.1591e-03  1.1422e-02  1.1632e-03  0:07:21 1744
   257  7.8497e-03  8.5717e-03  8.0406e-03  6.7731e-01  7.7887e-03  1.1062e-02  1.1431e-03  0:05:53 1743
   258  7.4792e-03  8.1107e-03  8.2298e-03  7.2545e-01  7.4209e-03  1.0771e-02  1.1236e-03  0:04:42 1742
   259  7.1047e-03  7.8620e-03  8.4554e-03  7.7254e-01  7.0498e-03  1.0446e-02  1.1006e-03  0:03:46 1741
   260  6.7562e-03  7.6920e-03  8.6735e-03  8.1567e-01  6.7056e-03  1.0159e-02  1.1138e-03  0:03:00 1740
   261  6.4551e-03  7.5806e-03  8.8646e-03  8.5078e-01  6.4096e-03  9.8025e-03  1.1055e-03  0:02:24 1739
   262  6.2280e-03  7.5135e-03  9.0179e-03  8.7819e-01  6.1883e-03  9.4754e-03  1.1018e-03  0:01:55 1738
   263  6.0413e-03  7.4849e-03  9.1295e-03  8.9995e-01  6.0076e-03  9.2189e-03  1.0916e-03  0:07:20 1737
   264  5.8934e-03  7.4876e-03  9.1961e-03  9.1524e-01  5.8659e-03  8.8525e-03  1.0783e-03  0:05:51 1736

  iter  continuity  x-velocity  y-velocity  z-velocity      energy           k       omega     time/iter
   265  5.7655e-03  7.5225e-03  9.2152e-03  9.2082e-01  5.7439e-03  8.6225e-03  1.0822e-03  0:04:41 1735
   266  5.6543e-03  7.5912e-03  9.1844e-03  9.1486e-01  5.6382e-03  8.3868e-03  1.0793e-03  0:03:45 1734
   267  5.5392e-03  7.6789e-03  9.1054e-03  8.9937e-01  5.5281e-03  8.1765e-03  1.0987e-03  0:03:00 1733
   268  5.4169e-03  7.7693e-03  8.9784e-03  8.7415e-01  5.4102e-03  7.9207e-03  1.0992e-03  0:02:24 1732
   269  5.2892e-03  7.8534e-03  8.8004e-03  8.4004e-01  5.2862e-03  7.6879e-03  1.1060e-03  0:01:55 1731
   270  5.1419e-03  7.9308e-03  8.5657e-03  8.1007e-01  5.1422e-03  7.5775e-03  1.1070e-03  0:07:18 1730
   271  4.9705e-03  7.9559e-03  8.3029e-03  7.7811e-01  4.9735e-03  7.4669e-03  1.1081e-03  0:05:50 1729
   272  4.7673e-03  7.9260e-03  8.0094e-03  7.4913e-01  4.7725e-03  7.3753e-03  1.1011e-03  0:04:40 1728
   273  4.5469e-03  7.8633e-03  7.6852e-03  7.2744e-01  4.5537e-03  7.3171e-03  1.0947e-03  0:03:44 1727
   274  4.3209e-03  7.7765e-03  7.3311e-03  7.0860e-01  4.3289e-03  7.3550e-03  1.0910e-03  0:02:59 1726
   275  4.1005e-03  7.6574e-03  6.9527e-03  6.9091e-01  4.1091e-03  7.4420e-03  1.0835e-03  0:02:23 1725

  iter  continuity  x-velocity  y-velocity  z-velocity      energy           k       omega     time/iter
   276  3.9026e-03  7.5071e-03  6.5576e-03  6.7625e-01  3.9112e-03  7.4916e-03  1.0800e-03  0:01:54 1724
   277  3.7368e-03  7.3335e-03  6.1552e-03  6.6323e-01  3.7448e-03  7.5330e-03  1.0730e-03  0:07:16 1723
   278  3.6189e-03  7.1449e-03  5.7522e-03  6.5225e-01  3.6257e-03  7.5304e-03  1.0615e-03  0:05:49 1722
   279  3.5566e-03  6.9543e-03  5.3551e-03  6.4585e-01  3.5617e-03  7.5472e-03  1.0662e-03  0:04:39 1721
   280  3.5501e-03  6.7602e-03  4.9708e-03  6.4271e-01  3.5533e-03  7.5123e-03  1.0486e-03  0:03:43 1720
   281  3.5926e-03  6.5698e-03  4.6045e-03  6.4001e-01  3.5936e-03  7.4787e-03  1.0309e-03  0:02:58 1719
   282  3.6720e-03  6.3937e-03  4.2571e-03  6.3091e-01  3.6709e-03  7.3746e-03  1.0128e-03  0:02:22 1718
   283  3.7630e-03  6.2467e-03  3.9311e-03  6.2464e-01  3.7600e-03  7.1981e-03  9.8792e-04  0:01:54 1717
   284  3.8481e-03  6.1136e-03  3.6271e-03  6.0980e-01  3.8435e-03  7.0575e-03  9.5388e-04  0:07:14 1716
   285  3.9189e-03  5.9970e-03  3.3544e-03  5.9352e-01  3.9130e-03  6.9732e-03  9.2399e-04  0:05:47 1715
   286  3.9482e-03  5.8520e-03  3.1344e-03  5.7715e-01  3.9413e-03  6.8746e-03  8.9429e-04  0:04:38 1714

  iter  continuity  x-velocity  y-velocity  z-velocity      energy           k       omega     time/iter
   287  3.9230e-03  5.7068e-03  2.9457e-03  5.5933e-01  3.9152e-03  6.7733e-03  8.6647e-04  0:03:42 1713
   288  3.8654e-03  5.5668e-03  2.7814e-03  5.6860e-01  3.8571e-03  6.6212e-03  8.3313e-04  0:02:57 1712
   289  3.7842e-03  5.4317e-03  2.6392e-03  5.2927e-01  3.7754e-03  6.4542e-03  8.0907e-04  0:02:22 1711
   290  3.6763e-03  5.3028e-03  2.5189e-03  5.0788e-01  3.6672e-03  6.3777e-03  7.9093e-04  0:01:53 1710
   291  3.5400e-03  5.1938e-03  2.4132e-03  4.9188e-01  3.5307e-03  6.3316e-03  7.7137e-04  0:01:31 1709
   292  3.3809e-03  5.0777e-03  2.3268e-03  4.7846e-01  3.3716e-03  6.2393e-03  7.4955e-04  0:06:54 1708
   293  3.2027e-03  4.9464e-03  2.2541e-03  4.6789e-01  3.1935e-03  6.1133e-03  7.3295e-04  0:05:31 1707
   294  3.0146e-03  4.8076e-03  2.1937e-03  4.6141e-01  3.0056e-03  6.0013e-03  7.1321e-04  0:04:25 1706
   295  2.8236e-03  4.6674e-03  2.1439e-03  4.5870e-01  2.8149e-03  5.9015e-03  7.0019e-04  0:03:32 1705
   296  2.6409e-03  4.5250e-03  2.1026e-03  4.6300e-01  2.6325e-03  5.9618e-03  6.8738e-04  0:02:49 1704
   297  2.4796e-03  4.3848e-03  2.0675e-03  4.7483e-01  2.4715e-03  6.0071e-03  6.7624e-04  0:02:15 1703

  iter  continuity  x-velocity  y-velocity  z-velocity      energy           k       omega     time/iter
   298  2.3527e-03  4.2469e-03  2.0383e-03  4.9351e-01  2.3451e-03  5.9810e-03  6.6447e-04  0:01:48 1702
   299  2.2682e-03  4.1116e-03  2.0148e-03  5.1712e-01  2.2611e-03  5.9612e-03  6.5796e-04  0:07:07 1701
   300  2.2341e-03  3.9812e-03  1.9961e-03  5.4394e-01  2.2275e-03  5.9754e-03  6.5572e-04  0:05:41 1700
   301  2.2506e-03  3.8567e-03  1.9823e-03  5.7309e-01  2.2446e-03  5.9708e-03  6.5852e-04  0:04:33 1699
   302  2.3171e-03  3.7417e-03  1.9723e-03  6.0350e-01  2.3115e-03  5.9670e-03  6.4821e-04  0:03:38 1698
   303  2.4219e-03  3.6373e-03  1.9662e-03  6.3470e-01  2.4167e-03  5.8822e-03  6.3708e-04  0:02:54 1697
   304  2.5544e-03  3.5444e-03  1.9614e-03  6.6659e-01  2.5493e-03  5.7994e-03  6.2765e-04  0:02:19 1696
   305  2.7022e-03  3.4644e-03  1.9594e-03  6.9838e-01  2.6972e-03  5.7084e-03  6.1904e-04  0:01:51 1695
   306  2.8557e-03  3.3981e-03  1.9596e-03  7.3265e-01  2.8505e-03  5.6092e-03  6.1511e-04  0:01:29 1694
   307  3.0054e-03  3.3475e-03  1.9612e-03  7.6910e-01  3.0000e-03  5.5219e-03  6.0640e-04  0:06:50 1693
   308  3.1456e-03  3.3136e-03  1.9636e-03  8.1005e-01  3.1398e-03  5.4022e-03  5.9990e-04  0:05:28 1692

  iter  continuity  x-velocity  y-velocity  z-velocity      energy           k       omega     time/iter
   309  3.2736e-03  3.2962e-03  1.9667e-03  8.5821e-01  3.2673e-03  5.3352e-03  5.9507e-04  0:04:22 1691
   310  3.3715e-03  3.2948e-03  1.9698e-03  9.0539e-01  3.3646e-03  5.3423e-03  5.8748e-04  0:03:29 1690
   311  3.4554e-03  3.3075e-03  1.9725e-03  9.4497e-01  3.4478e-03  5.3786e-03  5.7625e-04  0:02:47 1689
   312  3.5174e-03  3.3323e-03  1.9746e-03  9.7974e-01  3.5090e-03  5.4196e-03  5.6430e-04  0:02:14 1688
   313  3.5484e-03  3.3672e-03  1.9756e-03  1.0113e+00  3.5392e-03  5.4463e-03  5.5334e-04  0:01:47 1687
   314  3.5546e-03  3.4086e-03  1.9751e-03  1.0373e+00  3.5444e-03  5.5114e-03  5.4207e-04  0:01:26 1686
   315  3.5373e-03  3.4524e-03  1.9729e-03  1.0672e+00  3.5260e-03  5.6180e-03  5.2882e-04  0:06:45 1685
   316  3.4980e-03  3.4942e-03  1.9695e-03  1.0908e+00  3.4855e-03  5.6482e-03  5.1190e-04  0:05:24 1684
   317  3.4378e-03  3.5302e-03  1.9656e-03  1.1082e+00  3.4240e-03  5.6189e-03  5.0160e-04  0:04:19 1683
   318  3.3607e-03  3.5574e-03  1.9621e-03  1.1241e+00  3.3456e-03  5.6335e-03  4.8805e-04  0:03:27 1682
   319  3.2716e-03  3.5733e-03  1.9611e-03  1.1395e+00  3.2551e-03  5.6275e-03  4.7388e-04  0:02:46 1681

  iter  continuity  x-velocity  y-velocity  z-velocity      energy           k       omega     time/iter
   320  3.1745e-03  3.5746e-03  1.9650e-03  1.1522e+00  3.1566e-03  5.5976e-03  4.5994e-04  0:02:12 1680
   321  3.0754e-03  3.5601e-03  1.9756e-03  1.1590e+00  3.0561e-03  5.4923e-03  4.4978e-04  0:01:46 1679
   322  2.9797e-03  3.5286e-03  1.9951e-03  1.1663e+00  2.9591e-03  5.3106e-03  4.4759e-04  0:07:00 1678
   323  2.8923e-03  3.4814e-03  2.0261e-03  1.1734e+00  2.8706e-03  5.1476e-03  4.4340e-04  0:05:36 1677
   324  2.8174e-03  3.4177e-03  2.0695e-03  1.1889e+00  2.7948e-03  5.0298e-03  4.3327e-04  0:04:29 1676
   325  2.7563e-03  3.3409e-03  2.1249e-03  1.2101e+00  2.7333e-03  4.9216e-03  4.2678e-04  0:03:35 1675
   326  2.7159e-03  3.2537e-03  2.1924e-03  1.2407e+00  2.6928e-03  4.8420e-03  4.2082e-04  0:02:52 1674
   327  2.6853e-03  3.1583e-03  2.2720e-03  1.2812e+00  2.6625e-03  4.7678e-03  4.1470e-04  0:02:17 1673
   328  2.6616e-03  3.0588e-03  2.3635e-03  1.3408e+00  2.6395e-03  4.7056e-03  4.0882e-04  0:01:50 1672
   329  2.6455e-03  2.9597e-03  2.4653e-03  1.4228e+00  2.6246e-03  4.6850e-03  4.0668e-04  0:01:28 1671
   330  2.6274e-03  2.8661e-03  2.5756e-03  1.5035e+00  2.6079e-03  4.6601e-03  4.1006e-04  0:06:44 1670

  iter  continuity  x-velocity  y-velocity  z-velocity      energy           k       omega     time/iter
   331  2.6008e-03  2.7844e-03  2.6923e-03  1.5921e+00  2.5829e-03  4.6364e-03  4.0812e-04  0:05:23 1669
   332  2.5697e-03  2.7211e-03  2.8129e-03  1.7298e+00  2.5537e-03  4.6016e-03  4.1011e-04  0:04:18 1668
   333  2.5294e-03  2.6813e-03  2.9355e-03  1.8440e+00  2.5154e-03  4.5699e-03  4.1333e-04  0:03:27 1667
   334  2.4800e-03  2.6714e-03  3.0569e-03  1.9525e+00  2.4683e-03  4.5586e-03  4.1143e-04  0:02:45 1666
   335  2.4218e-03  2.6944e-03  3.1747e-03  2.0635e+00  2.4124e-03  4.5080e-03  4.1236e-04  0:02:12 1665
   336  2.3546e-03  2.7510e-03  3.2867e-03  2.1844e+00  2.3476e-03  4.4445e-03  4.1354e-04  0:01:46 1664
   337  2.2815e-03  2.8397e-03  3.3906e-03  2.3106e+00  2.2769e-03  4.3915e-03  4.1327e-04  0:06:57 1663
   338  2.2069e-03  2.9571e-03  3.4845e-03  2.4353e+00  2.2046e-03  4.3435e-03  4.3285e-04  0:05:33 1662
   339  2.1371e-03  3.0993e-03  3.5663e-03  2.5603e+00  2.1369e-03  4.2726e-03  4.2006e-04  0:04:27 1661
   340  2.0788e-03  3.2606e-03  3.6339e-03  2.6826e+00  2.0806e-03  4.1991e-03  4.0868e-04  0:03:33 1660
   341  2.0391e-03  3.4358e-03  3.6864e-03  2.8027e+00  2.0424e-03  4.1045e-03  3.9744e-04  0:02:50 1659

  iter  continuity  x-velocity  y-velocity  z-velocity      energy           k       omega     time/iter
   342  2.0234e-03  3.6201e-03  3.7223e-03  2.9217e+00  2.0278e-03  3.9952e-03  3.8556e-04  0:02:16 1658
   343  2.0316e-03  3.8114e-03  3.7373e-03  3.0349e+00  2.0363e-03  3.9110e-03  3.7024e-04  0:01:49 1657
   344  2.0651e-03  3.9997e-03  3.7356e-03  3.1464e+00  2.0696e-03  3.8573e-03  3.5690e-04  0:06:58 1656
   345  2.1229e-03  4.1773e-03  3.7177e-03  3.2546e+00  2.1267e-03  3.8004e-03  3.4615e-04  0:05:34 1655
   346  2.1973e-03  4.3417e-03  3.6823e-03  3.3641e+00  2.1998e-03  3.7128e-03  3.3850e-04  0:04:27 1654
   347  2.2821e-03  4.4903e-03  3.6291e-03  3.4773e+00  2.2830e-03  3.6006e-03  3.2969e-04  0:03:34 1653
   348  2.3701e-03  4.6209e-03  3.5587e-03  3.5850e+00  2.3692e-03  3.5161e-03  3.2536e-04  0:02:51 1652
   349  2.4548e-03  4.7306e-03  3.4728e-03  3.6818e+00  2.4520e-03  3.4243e-03  3.2217e-04  0:02:17 1651
   350  2.5305e-03  4.8362e-03  3.3632e-03  3.7691e+00  2.5257e-03  3.3272e-03  3.1228e-04  0:01:49 1650
   351  2.5924e-03  4.9118e-03  3.2468e-03  3.8489e+00  2.5857e-03  3.2485e-03  3.0493e-04  0:06:57 1649
   352  2.6369e-03  4.9572e-03  3.1269e-03  3.9229e+00  2.6284e-03  3.1546e-03  3.0025e-04  0:05:34 1648

  iter  continuity  x-velocity  y-velocity  z-velocity      energy           k       omega     time/iter
   353  2.6614e-03  4.9750e-03  3.0050e-03  3.9842e+00  2.6511e-03  3.0479e-03  2.9547e-04  0:04:27 1647
   354  2.6640e-03  4.9667e-03  2.8846e-03  4.0345e+00  2.6521e-03  2.9360e-03  2.9556e-04  0:03:33 1646
   355  2.6443e-03  4.9329e-03  2.7707e-03  4.0805e+00  2.6309e-03  2.8098e-03  3.0002e-04  0:02:50 1645
   356  2.6028e-03  4.8773e-03  2.6664e-03  4.1174e+00  2.5881e-03  2.6892e-03  3.0415e-04  0:02:16 1644
   357  2.5403e-03  4.7967e-03  2.5796e-03  4.1457e+00  2.5245e-03  2.5993e-03  3.1414e-04  0:01:49 1643
   358  2.4586e-03  4.6953e-03  2.5134e-03  4.1636e+00  2.4420e-03  2.5437e-03  3.4182e-04  0:01:27 1642
   359  2.3604e-03  4.5748e-03  2.4702e-03  4.1714e+00  2.3431e-03  2.4692e-03  3.4551e-04  0:06:38 1641
   360  2.2478e-03  4.4394e-03  2.4504e-03  4.1716e+00  2.2302e-03  2.4322e-03  3.5272e-04  0:05:18 1640
   361  2.1256e-03  4.2911e-03  2.4532e-03  4.1557e+00  2.1080e-03  2.4064e-03  3.6226e-04  0:04:14 1639
   362  1.9975e-03  4.1329e-03  2.4753e-03  4.1296e+00  1.9802e-03  2.3868e-03  3.6888e-04  0:03:23 1638
   363  1.8686e-03  3.9677e-03  2.5121e-03  4.1036e+00  1.8520e-03  2.3677e-03  3.7482e-04  0:02:43 1637

  iter  continuity  x-velocity  y-velocity  z-velocity      energy           k       omega     time/iter
   364  1.7446e-03  3.7984e-03  2.5586e-03  4.0719e+00  1.7292e-03  2.3527e-03  3.7969e-04  0:02:10 1636
   365  1.6277e-03  3.6289e-03  2.6092e-03  4.0418e+00  1.6139e-03  2.3366e-03  3.8631e-04  0:01:44 1635
   366  1.5269e-03  3.4627e-03  2.6590e-03  4.0174e+00  1.5151e-03  2.3393e-03  3.9239e-04  0:01:23 1634
   367  1.4483e-03  3.3036e-03  2.7037e-03  4.0040e+00  1.4389e-03  2.3315e-03  3.9253e-04  0:06:33 1633
   368  1.3944e-03  3.1546e-03  2.7396e-03  4.0099e+00  1.3876e-03  2.3142e-03  3.9054e-04  0:05:14 1632
   369  1.3662e-03  3.0184e-03  2.7644e-03  4.0390e+00  1.3620e-03  2.2967e-03  3.8959e-04  0:04:11 1631
   370  1.3631e-03  2.8976e-03  2.7760e-03  4.0916e+00  1.3612e-03  2.2750e-03  3.8874e-04  0:03:21 1630
   371  1.3824e-03  2.7945e-03  2.7733e-03  4.1736e+00  1.3825e-03  2.2368e-03  3.8585e-04  0:02:41 1629
   372  1.4187e-03  2.7108e-03  2.7559e-03  4.2826e+00  1.4201e-03  2.1926e-03  3.8274e-04  0:02:08 1628
   373  1.4673e-03  2.6464e-03  2.7241e-03  4.4064e+00  1.4696e-03  2.1501e-03  3.7933e-04  0:01:43 1627
   374  1.5204e-03  2.5942e-03  2.6828e-03  4.5356e+00  1.5230e-03  2.1126e-03  3.7375e-04  0:01:22 1626

  iter  continuity  x-velocity  y-velocity  z-velocity      energy           k       omega     time/iter
   375  1.5815e-03  2.6112e-03  2.6285e-03  4.6827e+00  1.5840e-03  2.0878e-03  3.7253e-04  0:06:31 1625
   376  1.6408e-03  2.6485e-03  2.5605e-03  4.8371e+00  1.6429e-03  2.0956e-03  3.6881e-04  0:05:12 1624
   377  1.6947e-03  2.6820e-03  2.4823e-03  4.9871e+00  1.6961e-03  2.1519e-03  3.6543e-04  0:04:10 1623
   378  1.7412e-03  2.7012e-03  2.3965e-03  5.1165e+00  1.7416e-03  2.2106e-03  3.6565e-04  0:03:20 1622
   379  1.7800e-03  2.7053e-03  2.3049e-03  5.2205e+00  1.7793e-03  2.2802e-03  3.6699e-04  0:02:40 1621
   380  1.8111e-03  2.6973e-03  2.2091e-03  5.2993e+00  1.8093e-03  2.3313e-03  3.6425e-04  0:02:08 1620
   381  1.8349e-03  2.6810e-03  2.1107e-03  5.3458e+00  1.8319e-03  2.3719e-03  3.5853e-04  0:01:42 1619
   382  1.8521e-03  2.6587e-03  2.0116e-03  5.3600e+00  1.8478e-03  2.4198e-03  3.5833e-04  0:06:45 1618
   383  1.8633e-03  2.6315e-03  1.9140e-03  5.3500e+00  1.8578e-03  2.4757e-03  3.5793e-04  0:05:24 1617
   384  1.8696e-03  2.5998e-03  1.8200e-03  5.3242e+00  1.8629e-03  2.5276e-03  3.5534e-04  0:04:19 1616
   385  1.8717e-03  2.5632e-03  1.7316e-03  5.2722e+00  1.8639e-03  2.5643e-03  3.5393e-04  0:03:27 1615

  iter  continuity  x-velocity  y-velocity  z-velocity      energy           k       omega     time/iter
   386  1.8707e-03  2.5211e-03  1.6505e-03  5.1884e+00  1.8620e-03  2.5973e-03  3.5216e-04  0:02:46 1614
   387  1.8682e-03  2.4730e-03  1.5784e-03  5.1001e+00  1.8586e-03  2.6427e-03  3.4750e-04  0:02:12 1613
   388  1.8649e-03  2.4192e-03  1.5170e-03  5.0023e+00  1.8545e-03  2.6717e-03  3.4417e-04  0:01:46 1612
   389  1.8609e-03  2.3599e-03  1.4673e-03  4.9031e+00  1.8500e-03  2.6848e-03  3.3805e-04  0:01:25 1611
   390  1.8566e-03  2.2962e-03  1.4301e-03  4.8097e+00  1.8454e-03  2.6826e-03  3.2970e-04  0:06:30 1610
   391  1.8519e-03  2.2291e-03  1.4055e-03  4.7292e+00  1.8405e-03  2.6538e-03  3.2453e-04  0:05:12 1609
   392  1.8463e-03  2.1604e-03  1.3935e-03  4.6604e+00  1.8348e-03  2.6714e-03  3.1652e-04  0:04:09 1608
   393  1.8390e-03  2.0918e-03  1.3930e-03  4.6054e+00  1.8277e-03  2.6842e-03  3.1073e-04  0:03:19 1607
   394  1.8294e-03  2.0254e-03  1.4029e-03  4.5608e+00  1.8183e-03  2.6742e-03  3.0018e-04  0:02:39 1606
   395  1.8165e-03  1.9634e-03  1.4215e-03  4.5248e+00  1.8058e-03  2.6497e-03  2.8982e-04  0:02:07 1605
   396  1.7993e-03  1.9050e-03  1.4468e-03  4.4908e+00  1.7891e-03  2.6231e-03  2.8465e-04  0:01:42 1604

  iter  continuity  x-velocity  y-velocity  z-velocity      energy           k       omega     time/iter
   397  1.7772e-03  1.8529e-03  1.4769e-03  4.4557e+00  1.7676e-03  2.6001e-03  2.7858e-04  0:01:21 1603
   398  1.7461e-03  1.8061e-03  1.5106e-03  4.4395e+00  1.7370e-03  2.5980e-03  2.7480e-04  0:06:25 1602
   399  1.7088e-03  1.7686e-03  1.5453e-03  4.4153e+00  1.7004e-03  2.5778e-03  2.7268e-04  0:05:08 1601
   400  1.6611e-03  1.6477e-03  1.5673e-03  4.3821e+00  1.6534e-03  2.5571e-03  2.7009e-04  0:04:06 1600
   401  1.6091e-03  1.5865e-03  1.6010e-03  4.3366e+00  1.6022e-03  2.5224e-03  2.6134e-04  0:03:17 1599
   402  1.5482e-03  1.5384e-03  1.6318e-03  4.3037e+00  1.5420e-03  2.5086e-03  2.5990e-04  0:02:37 1598
   403  1.4816e-03  1.5101e-03  1.6566e-03  4.2545e+00  1.4762e-03  2.4655e-03  2.5948e-04  0:02:06 1597
   404  1.4101e-03  1.4986e-03  1.6749e-03  4.1836e+00  1.4055e-03  2.4281e-03  2.5551e-04  0:01:41 1596
   405  1.3353e-03  1.4994e-03  1.6868e-03  4.1002e+00  1.3314e-03  2.4039e-03  2.5091e-04  0:01:20 1595
   406  1.2607e-03  1.5100e-03  1.6925e-03  4.0104e+00  1.2576e-03  2.3725e-03  2.4665e-04  0:06:23 1594
   407  1.1883e-03  1.5254e-03  1.6921e-03  3.9158e+00  1.1859e-03  2.3510e-03  2.4583e-04  0:05:06 1593

  iter  continuity  x-velocity  y-velocity  z-velocity      energy           k       omega     time/iter
   408  1.1214e-03  1.5441e-03  1.6853e-03  3.8181e+00  1.1198e-03  2.3284e-03  2.4822e-04  0:04:05 1592
   409  1.0632e-03  1.5640e-03  1.6721e-03  3.7151e+00  1.0623e-03  2.2967e-03  2.5247e-04  0:03:16 1591
   410  1.0172e-03  1.5837e-03  1.6525e-03  3.6094e+00  1.0169e-03  2.2686e-03  2.5236e-04  0:02:37 1590
   411  9.8732e-04  1.6024e-03  1.6266e-03  3.5030e+00  9.8755e-04  2.2338e-03  2.5303e-04  0:02:05 1589
   412  9.7481e-04  1.6192e-03  1.5949e-03  3.3983e+00  9.7543e-04  2.1995e-03  2.5358e-04  0:01:40 1588
   413  9.7951e-04  1.6337e-03  1.5577e-03  3.2969e+00  9.8036e-04  2.1709e-03  2.5505e-04  0:06:37 1587
   414  9.9941e-04  1.6455e-03  1.5157e-03  3.2062e+00  1.0004e-03  2.1326e-03  2.5038e-04  0:05:18 1586
   415  1.0305e-03  1.6544e-03  1.4695e-03  3.1286e+00  1.0314e-03  2.0954e-03  2.4889e-04  0:04:14 1585
   416  1.0684e-03  1.6603e-03  1.4199e-03  3.0649e+00  1.0692e-03  2.0690e-03  2.4766e-04  0:03:23 1584
   417  1.1092e-03  1.6633e-03  1.3675e-03  3.0162e+00  1.1098e-03  2.0544e-03  2.4525e-04  0:02:42 1583
   418  1.1498e-03  1.6634e-03  1.3130e-03  2.9871e+00  1.1502e-03  2.0294e-03  2.4221e-04  0:02:10 1582

  iter  continuity  x-velocity  y-velocity  z-velocity      energy           k       omega     time/iter
   419  1.1861e-03  1.6598e-03  1.2571e-03  2.9739e+00  1.1863e-03  1.9977e-03  2.3861e-04  0:01:44 1581
   420  1.2170e-03  1.6530e-03  1.2003e-03  2.9787e+00  1.2170e-03  1.9542e-03  2.3231e-04  0:01:23 1580
   421  1.2399e-03  1.6432e-03  1.1432e-03  2.9975e+00  1.2396e-03  1.9064e-03  2.2733e-04  0:06:22 1579
   422  1.2532e-03  1.6303e-03  1.0864e-03  3.0297e+00  1.2527e-03  1.8631e-03  2.2267e-04  0:05:06 1578
   423  1.2558e-03  1.6144e-03  1.0304e-03  3.0719e+00  1.2550e-03  1.8387e-03  2.1645e-04  0:04:04 1577
   424  1.2470e-03  1.5951e-03  9.7576e-04  3.1211e+00  1.2460e-03  1.8136e-03  2.1389e-04  0:03:15 1576
   425  1.2267e-03  1.5721e-03  9.2282e-04  3.1749e+00  1.2255e-03  1.7789e-03  2.0722e-04  0:02:36 1575
   426  1.1954e-03  1.5451e-03  8.7152e-04  3.2311e+00  1.1940e-03  1.7384e-03  1.9931e-04  0:07:20 1574
   427  1.1537e-03  1.5139e-03  8.2247e-04  3.2853e+00  1.1522e-03  1.7110e-03  1.9389e-04  0:05:51 1573
   428  1.1029e-03  1.4791e-03  7.7606e-04  3.3334e+00  1.1012e-03  1.6961e-03  1.8760e-04  0:04:41 1572
   429  1.0445e-03  1.4404e-03  7.3353e-04  3.3747e+00  1.0426e-03  1.6820e-03  1.8319e-04  0:03:45 1571

  iter  continuity  x-velocity  y-velocity  z-velocity      energy           k       omega     time/iter
   430  9.8039e-04  1.3989e-03  6.9507e-04  3.4107e+00  9.7832e-04  1.6721e-03  1.7921e-04  0:03:00 1570
   431  9.1342e-04  1.3551e-03  6.6146e-04  3.4419e+00  9.1122e-04  1.6710e-03  1.7770e-04  0:02:24 1569
   432  8.4634e-04  1.3103e-03  6.3349e-04  3.4648e+00  8.4401e-04  1.6733e-03  1.7729e-04  0:01:55 1568
   433  7.8092e-04  1.2651e-03  6.1164e-04  3.4777e+00  7.7848e-04  1.6755e-03  1.7763e-04  0:01:32 1567
   434  7.1257e-04  1.2207e-03  5.9636e-04  3.4808e+00  7.1003e-04  1.6701e-03  1.7534e-04  0:06:27 1566
   435  6.5858e-04  1.1787e-03  5.8839e-04  3.4806e+00  6.5598e-04  1.6657e-03  1.7248e-04  0:05:09 1565
   436  6.2279e-04  1.1406e-03  5.8724e-04  3.4714e+00  6.2018e-04  1.6585e-03  1.6903e-04  0:04:07 1564
   437  6.0912e-04  1.1075e-03  5.9246e-04  3.4602e+00  6.0656e-04  1.6279e-03  1.6749e-04  0:03:18 1563
   438  6.1680e-04  1.0807e-03  6.0298e-04  3.4463e+00  6.1433e-04  1.5893e-03  1.6757e-04  0:02:38 1562
   439  6.4461e-04  1.0614e-03  6.1764e-04  3.4293e+00  6.4221e-04  1.5534e-03  1.6850e-04  0:02:06 1561
   440  6.8891e-04  1.0502e-03  6.3514e-04  3.4090e+00  6.8655e-04  1.5288e-03  1.6681e-04  0:01:41 1560

  iter  continuity  x-velocity  y-velocity  z-velocity      energy           k       omega     time/iter
   441  7.4444e-04  1.0476e-03  6.5433e-04  3.3876e+00  7.4205e-04  1.5190e-03  1.6464e-04  0:06:33 1559
   442  8.0641e-04  1.0536e-03  6.7408e-04  3.3655e+00  8.0390e-04  1.5032e-03  1.6364e-04  0:05:14 1558
   443  8.7123e-04  1.0675e-03  6.9339e-04  3.3430e+00  8.6853e-04  1.4870e-03  1.6181e-04  0:04:11 1557
   444  9.3647e-04  1.0883e-03  7.1135e-04  3.3181e+00  9.3351e-04  1.4741e-03  1.6133e-04  0:03:21 1556
   445  9.9978e-04  1.1146e-03  7.2731e-04  3.2907e+00  9.9649e-04  1.4682e-03  1.5698e-04  0:02:40 1555
   446  1.0594e-03  1.1448e-03  7.4074e-04  3.2596e+00  1.0557e-03  1.4682e-03  1.5454e-04  0:02:08 1554
   447  1.1139e-03  1.1771e-03  7.5131e-04  3.2232e+00  1.1098e-03  1.4575e-03  1.5185e-04  0:01:42 1553
   448  1.1624e-03  1.2100e-03  7.5881e-04  3.1797e+00  1.1578e-03  1.4306e-03  1.5207e-04  0:01:22 1552
   449  1.2043e-03  1.2420e-03  7.6333e-04  3.1275e+00  1.1991e-03  1.4074e-03  1.5147e-04  0:06:16 1551
   450  1.2388e-03  1.2719e-03  7.6525e-04  3.0642e+00  1.2332e-03  1.3848e-03  1.5021e-04  0:05:00 1550
   451  1.2658e-03  1.2983e-03  7.6525e-04  2.9885e+00  1.2596e-03  1.3599e-03  1.5021e-04  0:04:00 1549

  iter  continuity  x-velocity  y-velocity  z-velocity      energy           k       omega     time/iter
   452  1.2853e-03  1.3198e-03  7.6389e-04  2.8980e+00  1.2786e-03  1.3326e-03  1.4897e-04  0:03:12 1548
   453  1.2957e-03  1.3357e-03  7.6193e-04  2.8001e+00  1.2884e-03  1.3150e-03  1.4754e-04  0:02:33 1547
   454  1.2985e-03  1.3454e-03  7.6045e-04  2.6885e+00  1.2907e-03  1.2953e-03  1.4359e-04  0:02:03 1546
   455  1.2940e-03  1.3485e-03  7.6066e-04  2.5676e+00  1.2857e-03  1.2819e-03  1.4089e-04  0:01:38 1545
   456  1.2821e-03  1.3448e-03  7.6378e-04  2.4373e+00  1.2734e-03  1.2760e-03  1.3751e-04  0:01:18 1544
   457  1.2631e-03  1.3341e-03  7.7100e-04  2.3010e+00  1.2540e-03  1.2674e-03  1.3470e-04  0:06:11 1543
   458  1.2376e-03  1.3167e-03  7.8330e-04  2.1658e+00  1.2281e-03  1.2624e-03  1.3162e-04  0:04:57 1542
   459  1.2060e-03  1.2922e-03  8.0160e-04  2.0320e+00  1.1963e-03  1.2656e-03  1.2908e-04  0:03:57 1541
   460  1.1691e-03  1.2622e-03  8.2603e-04  1.9038e+00  1.1592e-03  1.2672e-03  1.2620e-04  0:03:10 1540
   461  1.1276e-03  1.2275e-03  8.5648e-04  1.7886e+00  1.1176e-03  1.2649e-03  1.2471e-04  0:02:32 1539
   462  1.0822e-03  1.1892e-03  8.9242e-04  1.6891e+00  1.0723e-03  1.2661e-03  1.2407e-04  0:02:01 1538

  iter  continuity  x-velocity  y-velocity  z-velocity      energy           k       omega     time/iter
   463  1.0337e-03  1.1486e-03  9.3299e-04  1.6106e+00  1.0240e-03  1.2642e-03  1.2393e-04  0:01:37 1537
   464  9.8343e-04  1.1072e-03  9.7713e-04  1.5590e+00  9.7409e-04  1.2635e-03  1.2658e-04  0:01:18 1536
   465  9.3251e-04  1.0667e-03  1.0235e-03  1.5366e+00  9.2366e-04  1.2667e-03  1.2952e-04  0:06:09 1535
   466  8.8192e-04  1.0292e-03  1.0708e-03  1.5361e+00  8.7374e-04  1.2657e-03  1.3245e-04  0:04:55 1534
   467  8.3236e-04  9.9677e-04  1.1176e-03  1.5521e+00  8.2502e-04  1.2612e-03  1.3498e-04  0:03:56 1533
   468  7.8519e-04  9.7133e-04  1.1626e-03  1.5790e+00  7.7884e-04  1.2528e-03  1.3724e-04  0:03:09 1532
   469  7.4226e-04  9.5445e-04  1.2047e-03  1.6276e+00  7.3706e-04  1.2375e-03  1.3747e-04  0:02:31 1531
   470  7.0452e-04  9.4721e-04  1.2428e-03  1.6775e+00  7.0059e-04  1.2220e-03  1.3770e-04  0:02:01 1530
   471  6.7331e-04  9.5010e-04  1.2761e-03  1.7289e+00  6.7072e-04  1.2047e-03  1.3720e-04  0:01:36 1529
   472  6.4962e-04  9.6285e-04  1.3036e-03  1.7793e+00  6.4836e-04  1.1836e-03  1.3757e-04  0:06:23 1528
   473  6.3423e-04  9.8443e-04  1.3246e-03  1.8274e+00  6.3422e-04  1.1614e-03  1.3859e-04  0:05:06 1527

  iter  continuity  x-velocity  y-velocity  z-velocity      energy           k       omega     time/iter
   474  6.2732e-04  1.0133e-03  1.3387e-03  1.8727e+00  6.2838e-04  1.1370e-03  1.3797e-04  0:04:05 1526
   475  6.2872e-04  1.0476e-03  1.3454e-03  1.9105e+00  6.3059e-04  1.1157e-03  1.3679e-04  0:03:16 1525
   476  6.3758e-04  1.0856e-03  1.3445e-03  1.9380e+00  6.3999e-04  1.0925e-03  1.3406e-04  0:02:36 1524
   477  6.5255e-04  1.1252e-03  1.3358e-03  1.9533e+00  6.5521e-04  1.0695e-03  1.3194e-04  0:02:05 1523
   478  6.7218e-04  1.1647e-03  1.3194e-03  1.9590e+00  6.7481e-04  1.0448e-03  1.2960e-04  0:01:40 1522
   479  6.9497e-04  1.2026e-03  1.2955e-03  1.9551e+00  6.9735e-04  1.0139e-03  1.2638e-04  0:06:24 1521
   480  7.1957e-04  1.2374e-03  1.2647e-03  1.9420e+00  7.2152e-04  9.8669e-04  1.2339e-04  0:05:07 1520
   481  7.4463e-04  1.2682e-03  1.2273e-03  1.9211e+00  7.4602e-04  9.5948e-04  1.2024e-04  0:04:05 1519
   482  7.6902e-04  1.2941e-03  1.1843e-03  1.8967e+00  7.6977e-04  9.3170e-04  1.1652e-04  0:03:16 1518
   483  7.9184e-04  1.3144e-03  1.1365e-03  1.8695e+00  7.9189e-04  9.1029e-04  1.1385e-04  0:02:37 1517
   484  8.1234e-04  1.3286e-03  1.0851e-03  1.8379e+00  8.1168e-04  8.9023e-04  1.1145e-04  0:02:05 1516

  iter  continuity  x-velocity  y-velocity  z-velocity      energy           k       omega     time/iter
   485  8.2995e-04  1.3366e-03  1.0313e-03  1.8017e+00  8.2859e-04  8.6811e-04  1.0816e-04  0:01:40 1515
   486  8.4418e-04  1.3381e-03  9.7661e-04  1.7611e+00  8.4214e-04  8.4620e-04  1.0424e-04  0:01:20 1514
   487  8.5472e-04  1.3333e-03  9.2261e-04  1.7179e+00  8.5205e-04  8.2999e-04  9.8222e-05  0:06:07 1513
   488  8.6140e-04  1.3223e-03  8.7108e-04  1.6724e+00  8.5817e-04  8.1399e-04  9.3275e-05  0:04:53 1512
   489  8.6402e-04  1.3055e-03  8.2379e-04  1.6203e+00  8.6031e-04  7.9960e-04  8.9953e-05  0:03:54 1511
   490  8.6268e-04  1.2834e-03  7.8253e-04  1.5622e+00  8.5857e-04  7.8991e-04  8.7327e-05  0:03:07 1510
   491  8.5750e-04  1.2564e-03  7.4896e-04  1.4980e+00  8.5309e-04  7.8320e-04  8.5206e-05  0:02:30 1509
   492  8.4884e-04  1.2253e-03  7.2437e-04  1.4311e+00  8.4422e-04  7.7593e-04  8.3881e-05  0:02:00 1508
   493  8.3699e-04  1.1906e-03  7.0931e-04  1.3618e+00  8.3226e-04  7.7023e-04  8.2868e-05  0:01:36 1507
   494  8.2234e-04  1.1531e-03  7.0357e-04  1.2913e+00  8.1760e-04  7.6793e-04  8.2435e-05  0:06:18 1506
   495  8.0536e-04  1.1136e-03  7.0619e-04  1.2180e+00  8.0071e-04  7.6736e-04  8.2806e-05  0:05:02 1505

  iter  continuity  x-velocity  y-velocity  z-velocity      energy           k       omega     time/iter
   496  7.8663e-04  1.0730e-03  7.1571e-04  1.1463e+00  7.8217e-04  7.6896e-04  8.3993e-05  0:04:01 1504
   497  7.6674e-04  1.0323e-03  7.3030e-04  1.0785e+00  7.6256e-04  7.7172e-04  8.5539e-05  0:03:13 1503
   498  7.4635e-04  9.9196e-04  7.4800e-04  1.0177e+00  7.4253e-04  7.7388e-04  8.7738e-05  0:02:34 1502
   499  7.2605e-04  9.5295e-04  7.6688e-04  9.6545e-01  7.2266e-04  7.7340e-04  8.9740e-05  0:02:03 1501
   500  7.0641e-04  9.1603e-04  7.8533e-04  9.2595e-01  7.0351e-04  7.6691e-04  9.1843e-05  0:01:39 1500
   501  6.8794e-04  8.8176e-04  8.0194e-04  9.0106e-01  6.8556e-04  7.5661e-04  9.2857e-05  0:06:19 1499
   502  6.7104e-04  8.5057e-04  8.1557e-04  8.9373e-01  6.6919e-04  7.4354e-04  9.4099e-05  0:05:03 1498
   503  6.5601e-04  8.2274e-04  8.2539e-04  9.0199e-01  6.5468e-04  7.2729e-04  9.5186e-05  0:04:02 1497
   504  6.4300e-04  7.9833e-04  8.3081e-04  9.1816e-01  6.4216e-04  7.0975e-04  9.6515e-05  0:03:13 1496
   505  6.3201e-04  7.7727e-04  8.3147e-04  9.4209e-01  6.3161e-04  6.9095e-04  9.7883e-05  0:02:35 1495
   506  6.2291e-04  7.5922e-04  8.2714e-04  9.7145e-01  6.2288e-04  6.7289e-04  9.9404e-05  0:02:04 1494

  iter  continuity  x-velocity  y-velocity  z-velocity      energy           k       omega     time/iter
   507  6.1532e-04  7.4389e-04  8.1779e-04  1.0006e+00  6.1557e-04  6.5525e-04  1.0036e-04  0:06:37 1493
   508  6.0896e-04  7.3086e-04  8.0353e-04  1.0278e+00  6.0941e-04  6.4022e-04  1.0029e-04  0:05:18 1492
   509  6.0349e-04  7.1955e-04  7.8462e-04  1.0516e+00  6.0404e-04  6.2553e-04  9.8839e-05  0:04:14 1491
   510  5.9844e-04  7.0939e-04  7.6143e-04  1.0712e+00  5.9901e-04  6.1314e-04  9.6522e-05  0:03:23 1490
   511  5.9339e-04  6.9981e-04  7.3443e-04  1.0848e+00  5.9389e-04  6.0306e-04  9.2157e-05  0:02:42 1489
   512  5.8794e-04  6.9025e-04  7.0417e-04  1.0926e+00  5.8832e-04  5.9173e-04  9.0529e-05  0:02:10 1488
   513  5.8175e-04  6.8036e-04  6.7129e-04  1.0978e+00  5.8194e-04  5.8230e-04  9.1766e-05  0:06:41 1487
   514  5.7454e-04  6.6983e-04  6.3642e-04  1.1020e+00  5.7450e-04  5.7622e-04  9.2709e-05  0:05:21 1486
   515  5.6619e-04  6.5841e-04  6.0037e-04  1.1049e+00  5.6589e-04  5.7287e-04  9.2437e-05  0:04:16 1485
   516  5.5663e-04  6.4598e-04  5.6402e-04  1.1052e+00  5.5606e-04  5.6997e-04  9.2106e-05  0:03:25 1484
   517  5.4585e-04  6.3241e-04  5.2826e-04  1.1031e+00  5.4500e-04  5.6802e-04  9.1958e-05  0:02:44 1483

  iter  continuity  x-velocity  y-velocity  z-velocity      energy           k       omega     time/iter
   518  5.3390e-04  6.1756e-04  4.9398e-04  1.0992e+00  5.3276e-04  5.6653e-04  9.1938e-05  0:02:11 1482
   519  5.2084e-04  6.0156e-04  4.6208e-04  1.0931e+00  5.1944e-04  5.6413e-04  9.1313e-05  0:01:45 1481
   520  5.0679e-04  5.8451e-04  4.3336e-04  1.0846e+00  5.0515e-04  5.6355e-04  8.9327e-05  0:06:20 1480
   521  4.9191e-04  5.6668e-04  4.0865e-04  1.0744e+00  4.9006e-04  5.6124e-04  8.8181e-05  0:05:04 1479
   522  4.7636e-04  5.4833e-04  3.8858e-04  1.0624e+00  4.7434e-04  5.5869e-04  8.7430e-05  0:04:03 1478
   523  4.6038e-04  5.2972e-04  3.7350e-04  1.0498e+00  4.5824e-04  5.5889e-04  8.7013e-05  0:03:14 1477
   524  4.4416e-04  5.1116e-04  3.6345e-04  1.0327e+00  4.4194e-04  5.5787e-04  8.6006e-05  0:02:35 1476
   525  4.2787e-04  4.9293e-04  3.5810e-04  1.0119e+00  4.2563e-04  5.5597e-04  8.4819e-05  0:02:04 1475
   526  4.1166e-04  4.7524e-04  3.5676e-04  9.9087e-01  4.0943e-04  5.5358e-04  8.3348e-05  0:06:34 1474
   527  3.9575e-04  4.5792e-04  3.5871e-04  9.7279e-01  3.9359e-04  5.4948e-04  8.0524e-05  0:05:15 1473
   528  3.8033e-04  4.4184e-04  3.6275e-04  9.5490e-01  3.7828e-04  5.4431e-04  7.7927e-05  0:04:12 1472

  iter  continuity  x-velocity  y-velocity  z-velocity      energy           k       omega     time/iter
   529  3.6553e-04  4.2718e-04  3.6805e-04  9.3284e-01  3.6364e-04  5.4070e-04  7.5207e-05  0:03:21 1471
   530  3.5152e-04  4.1409e-04  3.7378e-04  9.1144e-01  3.4981e-04  5.3626e-04  7.2220e-05  0:02:41 1470
   531  3.3842e-04  4.0269e-04  3.7927e-04  8.9188e-01  3.3692e-04  5.2916e-04  7.0324e-05  0:02:09 1469
   532  3.2639e-04  3.9301e-04  3.8400e-04  8.7353e-01  3.2512e-04  5.1868e-04  6.9355e-05  0:06:36 1468
   533  3.1553e-04  3.8505e-04  3.8752e-04  8.5908e-01  3.1449e-04  5.1653e-04  6.8462e-05  0:05:17 1467
   534  3.0595e-04  3.7878e-04  3.8955e-04  8.4924e-01  3.0515e-04  5.1148e-04  6.7608e-05  0:04:13 1466
   535  2.9779e-04  3.7408e-04  3.8994e-04  8.4489e-01  2.9721e-04  5.0444e-04  6.6564e-05  0:03:23 1465
   536  2.9108e-04  3.7087e-04  3.8859e-04  8.4336e-01  2.9069e-04  4.9778e-04  6.5703e-05  0:02:42 1464
   537  2.8587e-04  3.6897e-04  3.8548e-04  8.4780e-01  2.8564e-04  4.9060e-04  6.4894e-05  0:02:09 1463
   538  2.8216e-04  3.6820e-04  3.8071e-04  8.5895e-01  2.8207e-04  4.8229e-04  6.4403e-05  0:01:44 1462
   539  2.8003e-04  3.6833e-04  3.7435e-04  8.7619e-01  2.8002e-04  4.7398e-04  6.4041e-05  0:06:15 1461

  iter  continuity  x-velocity  y-velocity  z-velocity      energy           k       omega     time/iter
   540  2.7941e-04  3.6922e-04  3.6654e-04  8.9795e-01  2.7945e-04  4.6617e-04  6.3758e-05  0:05:00 1460
   541  2.8019e-04  3.7071e-04  3.5742e-04  9.2292e-01  2.8024e-04  4.6154e-04  6.2878e-05  0:04:00 1459
   542  2.8217e-04  3.7263e-04  3.4716e-04  9.5050e-01  2.8219e-04  4.5564e-04  6.1386e-05  0:03:12 1458
   543  2.8524e-04  3.7485e-04  3.3593e-04  9.8007e-01  2.8519e-04  4.4483e-04  5.9503e-05  0:02:33 1457
   544  2.8923e-04  3.7728e-04  3.2394e-04  1.0108e+00  2.8909e-04  4.3274e-04  5.7921e-05  0:02:02 1456
   545  2.9393e-04  3.7981e-04  3.1135e-04  1.0423e+00  2.9368e-04  4.2382e-04  5.6621e-05  0:01:38 1455
   546  2.9909e-04  3.8219e-04  2.9858e-04  1.0744e+00  2.9871e-04  4.1638e-04  5.5784e-05  0:06:09 1454
   547  3.0449e-04  3.8433e-04  2.8590e-04  1.1071e+00  3.0396e-04  4.0704e-04  5.4929e-05  0:04:55 1453
   548  3.0987e-04  3.8616e-04  2.7344e-04  1.1410e+00  3.0920e-04  3.9520e-04  5.4136e-05  0:03:56 1452
   549  3.1498e-04  3.8768e-04  2.6144e-04  1.1738e+00  3.1417e-04  3.8780e-04  5.3120e-05  0:03:09 1451
   550  3.1958e-04  3.8882e-04  2.5013e-04  1.2033e+00  3.1863e-04  3.8323e-04  5.2106e-05  0:02:31 1450

  iter  continuity  x-velocity  y-velocity  z-velocity      energy           k       omega     time/iter
   551  3.2345e-04  3.8950e-04  2.3975e-04  1.2285e+00  3.2237e-04  3.7942e-04  5.1068e-05  0:02:01 1449
   552  3.2639e-04  3.8969e-04  2.3049e-04  1.2491e+00  3.2519e-04  3.7449e-04  4.9880e-05  0:06:26 1448
   553  3.2824e-04  3.8929e-04  2.2255e-04  1.2641e+00  3.2693e-04  3.6782e-04  4.8958e-05  0:05:09 1447
   554  3.2885e-04  3.8824e-04  2.1603e-04  1.2729e+00  3.2743e-04  3.6254e-04  4.8236e-05  0:04:07 1446
   555  3.2811e-04  3.8652e-04  2.1102e-04  1.2748e+00  3.2660e-04  3.6004e-04  4.7593e-05  0:03:17 1445
   556  3.2596e-04  3.8408e-04  2.0758e-04  1.2700e+00  3.2439e-04  3.5829e-04  4.6920e-05  0:02:38 1444
   557  3.2239e-04  3.8089e-04  2.0553e-04  1.2589e+00  3.2075e-04  3.5458e-04  4.6376e-05  0:02:06 1443
   558  3.1741e-04  3.7695e-04  2.0477e-04  1.2419e+00  3.1573e-04  3.5056e-04  4.6282e-05  0:01:41 1442
   559  3.1109e-04  3.7221e-04  2.0522e-04  1.2189e+00  3.0937e-04  3.4876e-04  4.6567e-05  0:06:09 1441
   560  3.0353e-04  3.6682e-04  2.0671e-04  1.1904e+00  3.0178e-04  3.4767e-04  4.7217e-05  0:04:55 1440
   561  2.9489e-04  3.6049e-04  2.0907e-04  1.1564e+00  2.9315e-04  3.4654e-04  4.7888e-05  0:03:56 1439

  iter  continuity  x-velocity  y-velocity  z-velocity      energy           k       omega     time/iter
   562  2.8537e-04  3.5348e-04  2.1205e-04  1.1174e+00  2.8364e-04  3.4673e-04  4.9061e-05  0:03:08 1438
   563  2.7522e-04  3.4577e-04  2.1547e-04  1.0752e+00  2.7352e-04  3.4738e-04  5.0076e-05  0:02:31 1437
   564  2.6471e-04  3.3739e-04  2.1917e-04  1.0311e+00  2.6306e-04  3.4935e-04  5.1165e-05  0:06:48 1436
   565  2.5416e-04  3.2844e-04  2.2296e-04  9.8669e-01  2.5257e-04  3.5249e-04  5.2222e-05  0:05:26 1435
   566  2.4388e-04  3.1902e-04  2.2671e-04  9.4442e-01  2.4238e-04  3.5662e-04  5.3118e-05  0:04:21 1434
   567  2.3423e-04  3.0929e-04  2.3027e-04  9.0759e-01  2.3284e-04  3.6036e-04  5.4051e-05  0:03:28 1433
   568  2.2554e-04  2.9943e-04  2.3356e-04  8.8000e-01  2.2426e-04  3.6390e-04  5.4753e-05  0:02:46 1432
   569  2.1811e-04  2.8967e-04  2.3649e-04  8.6369e-01  2.1697e-04  3.6552e-04  5.4912e-05  0:02:13 1431
   570  2.1219e-04  2.8026e-04  2.3898e-04  8.6016e-01  2.1120e-04  3.6644e-04  5.4955e-05  0:06:32 1430
   571  2.0798e-04  2.7147e-04  2.4101e-04  8.6907e-01  2.0713e-04  3.6870e-04  5.5084e-05  0:05:14 1429
   572  2.0557e-04  2.6362e-04  2.4253e-04  8.9038e-01  2.0486e-04  3.7042e-04  5.5621e-05  0:04:11 1428

  iter  continuity  x-velocity  y-velocity  z-velocity      energy           k       omega     time/iter
   573  2.0497e-04  2.5699e-04  2.4350e-04  9.2236e-01  2.0437e-04  3.7154e-04  5.6048e-05  0:03:20 1427
   574  2.0607e-04  2.5192e-04  2.4390e-04  9.6255e-01  2.0557e-04  3.7304e-04  5.6301e-05  0:02:40 1426
   575  2.0868e-04  2.4892e-04  2.4371e-04  1.0082e+00  2.0824e-04  3.7602e-04  5.6336e-05  0:02:08 1425
   576  2.1255e-04  2.4779e-04  2.4293e-04  1.0570e+00  2.1213e-04  3.7916e-04  5.6188e-05  0:06:27 1424
   577  2.1744e-04  2.4860e-04  2.4158e-04  1.1063e+00  2.1701e-04  3.8397e-04  5.5795e-05  0:05:10 1423
   578  2.2310e-04  2.5139e-04  2.3968e-04  1.1543e+00  2.2263e-04  3.8622e-04  5.5329e-05  0:04:07 1422
   579  2.2932e-04  2.5602e-04  2.3729e-04  1.1987e+00  2.2876e-04  3.8658e-04  5.4722e-05  0:03:18 1421
   580  2.3587e-04  2.6228e-04  2.3446e-04  1.2380e+00  2.3520e-04  3.8798e-04  5.3972e-05  0:02:38 1420
   581  2.4258e-04  2.6986e-04  2.3125e-04  1.2729e+00  2.4177e-04  3.8899e-04  5.2937e-05  0:02:06 1419
   582  2.4928e-04  2.7841e-04  2.2775e-04  1.3036e+00  2.4832e-04  3.8752e-04  5.1625e-05  0:06:25 1418
   583  2.5588e-04  2.8759e-04  2.2404e-04  1.3307e+00  2.5474e-04  3.8464e-04  5.0253e-05  0:05:08 1417

  iter  continuity  x-velocity  y-velocity  z-velocity      energy           k       omega     time/iter
   584  2.6227e-04  2.9704e-04  2.2025e-04  1.3557e+00  2.6094e-04  3.8457e-04  4.8972e-05  0:04:06 1416
   585  2.6834e-04  3.0645e-04  2.1653e-04  1.3801e+00  2.6682e-04  3.8328e-04  4.7720e-05  0:03:17 1415
   586  2.7402e-04  3.1551e-04  2.1305e-04  1.4040e+00  2.7231e-04  3.8212e-04  4.6347e-05  0:02:37 1414
   587  2.7924e-04  3.2397e-04  2.1000e-04  1.4278e+00  2.7732e-04  3.7951e-04  4.4970e-05  0:06:48 1413
   588  2.8391e-04  3.3161e-04  2.0758e-04  1.4505e+00  2.8181e-04  3.7543e-04  4.3699e-05  0:05:26 1412
   589  2.8798e-04  3.3839e-04  2.0604e-04  1.4714e+00  2.8570e-04  3.7284e-04  4.2412e-05  0:04:21 1411
   590  2.9137e-04  3.4377e-04  2.0558e-04  1.4908e+00  2.8893e-04  3.7024e-04  4.1061e-05  0:03:29 1410
   591  2.9401e-04  3.4789e-04  2.0631e-04  1.5089e+00  2.9142e-04  3.6587e-04  3.9808e-05  0:02:47 1409
   592  2.9583e-04  3.5065e-04  2.0834e-04  1.5259e+00  2.9311e-04  3.6096e-04  3.8595e-05  0:06:55 1408
   593  2.9678e-04  3.5203e-04  2.1177e-04  1.5428e+00  2.9395e-04  3.5475e-04  3.7452e-05  0:05:32 1407
   594  2.9680e-04  3.5200e-04  2.1660e-04  1.5599e+00  2.9389e-04  3.4794e-04  3.6279e-05  0:04:25 1406

  iter  continuity  x-velocity  y-velocity  z-velocity      energy           k       omega     time/iter
   595  2.9588e-04  3.5059e-04  2.2276e-04  1.5774e+00  2.9290e-04  3.4296e-04  3.5298e-05  0:03:32 1405
   596  2.9398e-04  3.4784e-04  2.3011e-04  1.5957e+00  2.9097e-04  3.3840e-04  3.4784e-05  0:02:49 1404
   597  2.9109e-04  3.4383e-04  2.3846e-04  1.6147e+00  2.8808e-04  3.3388e-04  3.4622e-05  0:06:56 1403
   598  2.8724e-04  3.3868e-04  2.4758e-04  1.6347e+00  2.8425e-04  3.2882e-04  3.4720e-05  0:05:33 1402
   599  2.8245e-04  3.3241e-04  2.5728e-04  1.6555e+00  2.7951e-04  3.2335e-04  3.5348e-05  0:04:26 1401
   600  2.7677e-04  3.2507e-04  2.6731e-04  1.6787e+00  2.7391e-04  3.1811e-04  3.5843e-05  0:03:33 1400
   601  2.7030e-04  3.1735e-04  2.7737e-04  1.7031e+00  2.6754e-04  3.1230e-04  3.6187e-05  0:02:50 1399
   602  2.6311e-04  3.0921e-04  2.8727e-04  1.7290e+00  2.6048e-04  3.0648e-04  3.6625e-05  0:06:55 1398
   603  2.5530e-04  3.0092e-04  2.9679e-04  1.7558e+00  2.5283e-04  3.0149e-04  3.7030e-05  0:05:32 1397
   604  2.4700e-04  2.9275e-04  3.0572e-04  1.7838e+00  2.4471e-04  2.9750e-04  3.7663e-05  0:04:26 1396
   605  2.3834e-04  2.8496e-04  3.1387e-04  1.8129e+00  2.3626e-04  2.9324e-04  3.8168e-05  0:03:32 1395

  iter  continuity  x-velocity  y-velocity  z-velocity      energy           k       omega     time/iter
   606  2.2950e-04  2.7775e-04  3.2108e-04  1.8421e+00  2.2764e-04  2.8962e-04  3.8599e-05  0:02:50 1394
   607  2.2063e-04  2.7134e-04  3.2719e-04  1.8706e+00  2.1901e-04  2.8622e-04  3.9033e-05  0:06:54 1393
   608  2.1190e-04  2.6593e-04  3.3209e-04  1.8983e+00  2.1054e-04  2.8255e-04  3.9327e-05  0:05:31 1392
   609  2.0350e-04  2.6166e-04  3.3567e-04  1.9238e+00  2.0240e-04  2.7851e-04  3.9506e-05  0:04:25 1391
   610  1.9558e-04  2.5862e-04  3.3785e-04  1.9472e+00  1.9475e-04  2.7491e-04  3.9670e-05  0:03:32 1390
   611  1.8830e-04  2.5684e-04  3.3857e-04  1.9682e+00  1.8772e-04  2.7130e-04  3.9677e-05  0:02:49 1389
   612  1.8176e-04  2.5625e-04  3.3781e-04  1.9864e+00  1.8142e-04  2.6711e-04  3.9557e-05  0:06:53 1388
   613  1.7609e-04  2.5675e-04  3.3555e-04  2.0011e+00  1.7596e-04  2.6299e-04  3.9272e-05  0:05:30 1387
   614  1.7131e-04  2.5817e-04  3.3182e-04  2.0122e+00  1.7137e-04  2.5941e-04  3.8917e-05  0:04:24 1386
   615  1.6743e-04  2.6031e-04  3.2663e-04  2.0190e+00  1.6765e-04  2.5653e-04  3.8532e-05  0:03:31 1385
   616  1.6441e-04  2.6294e-04  3.2005e-04  2.0215e+00  1.6474e-04  2.5346e-04  3.8095e-05  0:02:49 1384

  iter  continuity  x-velocity  y-velocity  z-velocity      energy           k       omega     time/iter
   617  1.6217e-04  2.6583e-04  3.1217e-04  2.0194e+00  1.6256e-04  2.5040e-04  3.7729e-05  0:06:51 1383
   618  1.6059e-04  2.6876e-04  3.0307e-04  2.0124e+00  1.6101e-04  2.4724e-04  3.7322e-05  0:05:29 1382
   619  1.5954e-04  2.7152e-04  2.9288e-04  2.0010e+00  1.5995e-04  2.4522e-04  3.6593e-05  0:04:23 1381
   620  1.5887e-04  2.7392e-04  2.8173e-04  1.9855e+00  1.5923e-04  2.4351e-04  3.5932e-05  0:03:30 1380
   621  1.5843e-04  2.7579e-04  2.6977e-04  1.9664e+00  1.5872e-04  2.4140e-04  3.5107e-05  0:02:48 1379
   622  1.5808e-04  2.7701e-04  2.5716e-04  1.9444e+00  1.5828e-04  2.3892e-04  3.4406e-05  0:06:50 1378
   623  1.5771e-04  2.7746e-04  2.4410e-04  1.9206e+00  1.5781e-04  2.3706e-04  3.3863e-05  0:05:28 1377
   624  1.5722e-04  2.7708e-04  2.3077e-04  1.8954e+00  1.5720e-04  2.3523e-04  3.3587e-05  0:04:22 1376
[...]
  1838  1.9023e-08  6.2756e-09  4.0503e-09  3.9462e-03  1.6266e-08  1.2188e-08  1.3952e-09  0:00:30  162
  1839  1.8961e-08  6.2797e-09  4.0738e-09  3.9370e-03  1.6214e-08  1.2121e-08  1.3905e-09  0:00:24  161
  1840  1.8898e-08  6.2847e-09  4.0925e-09  3.9283e-03  1.6158e-08  1.2054e-08  1.3865e-09  0:00:19  160
  1841  1.8831e-08  6.2904e-09  4.1060e-09  3.9201e-03  1.6099e-08  1.1986e-08  1.3828e-09  0:00:15  159
  1842  1.8762e-08  6.2965e-09  4.1143e-09  3.9122e-03  1.6038e-08  1.1918e-08  1.3792e-09  0:00:12  158
  1843  1.8691e-08  6.3025e-09  4.1172e-09  3.9046e-03  1.5975e-08  1.1848e-08  1.3763e-09  0:00:09  157
  1844  1.8617e-08  6.3082e-09  4.1147e-09  3.8972e-03  1.5909e-08  1.1778e-08  1.3737e-09  0:00:08  156
  1845  1.8541e-08  6.3132e-09  4.1069e-09  3.8898e-03  1.5841e-08  1.1708e-08  1.3714e-09  0:00:06  155
  1846  1.8463e-08  6.3173e-09  4.0937e-09  3.8826e-03  1.5771e-08  1.1636e-08  1.3694e-09  0:00:05  154
  1847  1.8384e-08  6.3201e-09  4.0752e-09  3.8753e-03  1.5700e-08  1.1564e-08  1.3678e-09  0:00:34  153
  1848  1.8303e-08  6.3213e-09  4.0517e-09  3.8678e-03  1.5627e-08  1.1491e-08  1.3664e-09  0:00:27  152

  iter  continuity  x-velocity  y-velocity  z-velocity      energy           k       omega     time/iter
  1849  1.8221e-08  6.3206e-09  4.0232e-09  3.8601e-03  1.5553e-08  1.1418e-08  1.3652e-09  0:00:22  151
  1850  1.8138e-08  6.3179e-09  3.9901e-09  3.8522e-03  1.5478e-08  1.1345e-08  1.3641e-09  0:00:17  150
  1851  1.8054e-08  6.3128e-09  3.9525e-09  3.8439e-03  1.5402e-08  1.1272e-08  1.3630e-09  0:00:14  149
  1852  1.7969e-08  6.3053e-09  3.9108e-09  3.8352e-03  1.5326e-08  1.1199e-08  1.3619e-09  0:00:11  148
  1853  1.7884e-08  6.2950e-09  3.8653e-09  3.8260e-03  1.5250e-08  1.1128e-08  1.3607e-09  0:00:09  147
  1854  1.7800e-08  6.2819e-09  3.8164e-09  3.8162e-03  1.5174e-08  1.1057e-08  1.3595e-09  0:00:07  146
  1855  1.7715e-08  6.2659e-09  3.7643e-09  3.8058e-03  1.5098e-08  1.0987e-08  1.3581e-09  0:00:05  145
  1856  1.7631e-08  6.2469e-09  3.7097e-09  3.7948e-03  1.5023e-08  1.0918e-08  1.3568e-09  0:00:04  144
  1857  1.7548e-08  6.2250e-09  3.6527e-09  3.7830e-03  1.4949e-08  1.0855e-08  1.3553e-09  0:00:32  143
  1858  1.7465e-08  6.2000e-09  3.5940e-09  3.7705e-03  1.4876e-08  1.0796e-08  1.3537e-09  0:00:25  142
  1859  1.7384e-08  6.1722e-09  3.5338e-09  3.7573e-03  1.4804e-08  1.0738e-08  1.3521e-09  0:00:20  141

  iter  continuity  x-velocity  y-velocity  z-velocity      energy           k       omega     time/iter
  1860  1.7304e-08  6.1414e-09  3.4727e-09  3.7432e-03  1.4734e-08  1.0683e-08  1.3502e-09  0:00:16  140
  1861  1.7226e-08  6.1079e-09  3.4110e-09  3.7283e-03  1.4665e-08  1.0630e-08  1.3483e-09  0:00:13  139
  1862  1.7149e-08  6.0718e-09  3.3493e-09  3.7126e-03  1.4599e-08  1.0579e-08  1.3462e-09  0:00:10  138
  1863  1.7074e-08  6.0333e-09  3.2880e-09  3.6960e-03  1.4534e-08  1.0530e-08  1.3440e-09  0:00:08  137
  1864  1.7002e-08  5.9925e-09  3.2274e-09  3.6786e-03  1.4472e-08  1.0483e-08  1.3418e-09  0:00:06  136
  1865  1.6932e-08  5.9497e-09  3.1681e-09  3.6604e-03  1.4413e-08  1.0439e-08  1.3398e-09  0:00:32  135
  1866  1.6864e-08  5.9051e-09  3.1104e-09  3.6413e-03  1.4356e-08  1.0396e-08  1.3375e-09  0:00:25  134
  1867  1.6799e-08  5.8590e-09  3.0547e-09  3.6215e-03  1.4301e-08  1.0356e-08  1.3352e-09  0:00:20  133
  1868  1.6737e-08  5.8117e-09  3.0014e-09  3.6008e-03  1.4250e-08  1.0318e-08  1.3329e-09  0:00:16  132
  1869  1.6677e-08  5.7633e-09  2.9508e-09  3.5795e-03  1.4201e-08  1.0280e-08  1.3307e-09  0:00:13  131
  1870  1.6620e-08  5.7143e-09  2.9033e-09  3.5574e-03  1.4155e-08  1.0244e-08  1.3283e-09  0:00:10  130

  iter  continuity  x-velocity  y-velocity  z-velocity      energy           k       omega     time/iter
  1871  1.6566e-08  5.6649e-09  2.8592e-09  3.5347e-03  1.4112e-08  1.0210e-08  1.3256e-09  0:00:08  129
  1872  1.6514e-08  5.6153e-09  2.8188e-09  3.5113e-03  1.4072e-08  1.0177e-08  1.3227e-09  0:00:06  128
  1873  1.6465e-08  5.5659e-09  2.7823e-09  3.4875e-03  1.4035e-08  1.0145e-08  1.3194e-09  0:00:05  127
  1874  1.6419e-08  5.5170e-09  2.7500e-09  3.4631e-03  1.4000e-08  1.0113e-08  1.3158e-09  0:00:29  126
  1875  1.6375e-08  5.4687e-09  2.7220e-09  3.4383e-03  1.3968e-08  1.0084e-08  1.3118e-09  0:00:23  125
  1876  1.6333e-08  5.4213e-09  2.6986e-09  3.4131e-03  1.3938e-08  1.0056e-08  1.3079e-09  0:00:18  124
  1877  1.6294e-08  5.3750e-09  2.6798e-09  3.3876e-03  1.3910e-08  1.0029e-08  1.3038e-09  0:00:15  123
  1878  1.6257e-08  5.3301e-09  2.6657e-09  3.3619e-03  1.3885e-08  1.0003e-08  1.2994e-09  0:00:12  122
  1879  1.6222e-08  5.2867e-09  2.6564e-09  3.3361e-03  1.3861e-08  9.9785e-09  1.2948e-09  0:00:09  121
  1880  1.6188e-08  5.2450e-09  2.6519e-09  3.3102e-03  1.3840e-08  9.9549e-09  1.2900e-09  0:00:07  120
  1881  1.6156e-08  5.2052e-09  2.6520e-09  3.2843e-03  1.3819e-08  9.9313e-09  1.2850e-09  0:00:06  119

  iter  continuity  x-velocity  y-velocity  z-velocity      energy           k       omega     time/iter
  1882  1.6126e-08  5.1672e-09  2.6569e-09  3.2584e-03  1.3800e-08  9.9078e-09  1.2797e-09  0:00:05  118
  1883  1.6096e-08  5.1313e-09  2.6662e-09  3.2328e-03  1.3782e-08  9.8844e-09  1.2741e-09  0:00:27  117
  1884  1.6067e-08  5.0975e-09  2.6799e-09  3.2073e-03  1.3764e-08  9.8604e-09  1.2683e-09  0:00:21  116
  1885  1.6039e-08  5.0658e-09  2.6977e-09  3.1821e-03  1.3747e-08  9.8355e-09  1.2622e-09  0:00:17  115
  1886  1.6011e-08  5.0363e-09  2.7194e-09  3.1573e-03  1.3730e-08  9.8099e-09  1.2559e-09  0:00:13  114
  1887  1.5984e-08  5.0089e-09  2.7447e-09  3.1330e-03  1.3713e-08  9.7833e-09  1.2495e-09  0:00:11  113
  1888  1.5956e-08  4.9837e-09  2.7733e-09  3.1091e-03  1.3696e-08  9.7560e-09  1.2430e-09  0:00:08  112
  1889  1.5928e-08  4.9607e-09  2.8048e-09  3.0858e-03  1.3678e-08  9.7308e-09  1.2365e-09  0:00:07  111
  1890  1.5899e-08  4.9397e-09  2.8390e-09  3.0631e-03  1.3659e-08  9.7081e-09  1.2297e-09  0:00:05  110
  1891  1.5869e-08  4.9208e-09  2.8754e-09  3.0410e-03  1.3639e-08  9.6853e-09  1.2229e-09  0:00:04  109
  1892  1.5839e-08  4.9039e-09  2.9137e-09  3.0197e-03  1.3618e-08  9.6628e-09  1.2160e-09  0:00:03  108

  iter  continuity  x-velocity  y-velocity  z-velocity      energy           k       omega     time/iter
  1893  1.5807e-08  4.8889e-09  2.9534e-09  2.9991e-03  1.3596e-08  9.6397e-09  1.2090e-09  0:00:24  107
  1894  1.5773e-08  4.8758e-09  2.9942e-09  2.9793e-03  1.3572e-08  9.6156e-09  1.2021e-09  0:00:19  106
  1895  1.5739e-08  4.8644e-09  3.0356e-09  2.9603e-03  1.3546e-08  9.5912e-09  1.1952e-09  0:00:15  105
  1896  1.5702e-08  4.8546e-09  3.0773e-09  2.9421e-03  1.3519e-08  9.5668e-09  1.1883e-09  0:00:12  104
  1897  1.5664e-08  4.8464e-09  3.1189e-09  2.9248e-03  1.3489e-08  9.5427e-09  1.1815e-09  0:00:09  103
  1898  1.5624e-08  4.8397e-09  3.1600e-09  2.9083e-03  1.3457e-08  9.5183e-09  1.1748e-09  0:00:08  102
  1899  1.5582e-08  4.8344e-09  3.2002e-09  2.8927e-03  1.3424e-08  9.4952e-09  1.1682e-09  0:00:06  101
  1900  1.5537e-08  4.8303e-09  3.2391e-09  2.8779e-03  1.3387e-08  9.4706e-09  1.1620e-09  0:00:05  100
  1901  1.5491e-08  4.8274e-09  3.2765e-09  2.8640e-03  1.3349e-08  9.4442e-09  1.1563e-09  0:00:04   99
  1902  1.5442e-08  4.8255e-09  3.3121e-09  2.8509e-03  1.3308e-08  9.4162e-09  1.1512e-09  0:00:03   98
  1903  1.5391e-08  4.8245e-09  3.3454e-09  2.8387e-03  1.3265e-08  9.3866e-09  1.1463e-09  0:00:22   97

  iter  continuity  x-velocity  y-velocity  z-velocity      energy           k       omega     time/iter
  1904  1.5339e-08  4.8243e-09  3.3764e-09  2.8272e-03  1.3219e-08  9.3558e-09  1.1418e-09  0:00:17   96
  1905  1.5283e-08  4.8248e-09  3.4046e-09  2.8166e-03  1.3172e-08  9.3234e-09  1.1374e-09  0:00:14   95
  1906  1.5226e-08  4.8258e-09  3.4300e-09  2.8066e-03  1.3122e-08  9.2901e-09  1.1330e-09  0:00:11   94
  1907  1.5167e-08  4.8272e-09  3.4523e-09  2.7974e-03  1.3069e-08  9.2567e-09  1.1289e-09  0:00:09   93
  1908  1.5105e-08  4.8288e-09  3.4714e-09  2.7889e-03  1.3015e-08  9.2221e-09  1.1249e-09  0:00:07   92
  1909  1.5042e-08  4.8305e-09  3.4870e-09  2.7809e-03  1.2958e-08  9.1866e-09  1.1209e-09  0:00:05   91
  1910  1.4977e-08  4.8322e-09  3.4993e-09  2.7736e-03  1.2900e-08  9.1522e-09  1.1170e-09  0:00:04   90
  1911  1.4910e-08  4.8337e-09  3.5080e-09  2.7668e-03  1.2840e-08  9.1172e-09  1.1132e-09  0:00:03   89
  1912  1.4841e-08  4.8349e-09  3.5131e-09  2.7604e-03  1.2778e-08  9.0814e-09  1.1094e-09  0:00:03   88
  1913  1.4771e-08  4.8356e-09  3.5146e-09  2.7546e-03  1.2715e-08  9.0451e-09  1.1056e-09  0:00:02   87
  1914  1.4699e-08  4.8357e-09  3.5125e-09  2.7490e-03  1.2650e-08  9.0083e-09  1.1020e-09  0:00:19   86

  iter  continuity  x-velocity  y-velocity  z-velocity      energy           k       omega     time/iter
  1915  1.4626e-08  4.8350e-09  3.5070e-09  2.7439e-03  1.2584e-08  8.9712e-09  1.0984e-09  0:00:15   85
  1916  1.4553e-08  4.8335e-09  3.4979e-09  2.7390e-03  1.2517e-08  8.9343e-09  1.0947e-09  0:00:12   84
  1917  1.4478e-08  4.8311e-09  3.4854e-09  2.7343e-03  1.2448e-08  8.8967e-09  1.0911e-09  0:00:09   83
  1918  1.4402e-08  4.8276e-09  3.4697e-09  2.7299e-03  1.2379e-08  8.8589e-09  1.0874e-09  0:00:07   82
  1919  1.4326e-08  4.8229e-09  3.4509e-09  2.7255e-03  1.2310e-08  8.8235e-09  1.0836e-09  0:00:06   81
  1920  1.4250e-08  4.8170e-09  3.4290e-09  2.7213e-03  1.2240e-08  8.7887e-09  1.0798e-09  0:00:05   80
  1921  1.4173e-08  4.8098e-09  3.4044e-09  2.7171e-03  1.2170e-08  8.7553e-09  1.0760e-09  0:00:04   79
  1922  1.4096e-08  4.8013e-09  3.3772e-09  2.7129e-03  1.2100e-08  8.7220e-09  1.0720e-09  0:00:03   78
  1923  1.4019e-08  4.7914e-09  3.3476e-09  2.7087e-03  1.2029e-08  8.6890e-09  1.0680e-09  0:00:02   77
  1924  1.3942e-08  4.7801e-09  3.3159e-09  2.7044e-03  1.1960e-08  8.6563e-09  1.0639e-09  0:00:17   76
  1925  1.3865e-08  4.7674e-09  3.2822e-09  2.7000e-03  1.1890e-08  8.6234e-09  1.0597e-09  0:00:13   75

  iter  continuity  x-velocity  y-velocity  z-velocity      energy           k       omega     time/iter
  1926  1.3789e-08  4.7533e-09  3.2469e-09  2.6954e-03  1.1821e-08  8.5903e-09  1.0553e-09  0:00:11   74
  1927  1.3714e-08  4.7378e-09  3.2101e-09  2.6907e-03  1.1753e-08  8.5572e-09  1.0509e-09  0:00:08   73
  1928  1.3639e-08  4.7210e-09  3.1722e-09  2.6857e-03  1.1685e-08  8.5243e-09  1.0464e-09  0:00:07   72
  1929  1.3565e-08  4.7029e-09  3.1334e-09  2.6806e-03  1.1619e-08  8.4913e-09  1.0419e-09  0:00:05   71
  1930  1.3492e-08  4.6835e-09  3.0939e-09  2.6751e-03  1.1553e-08  8.4582e-09  1.0372e-09  0:00:04   70
  1931  1.3420e-08  4.6629e-09  3.0541e-09  2.6695e-03  1.1489e-08  8.4249e-09  1.0326e-09  0:00:03   69
  1932  1.3350e-08  4.6413e-09  3.0142e-09  2.6635e-03  1.1426e-08  8.3916e-09  1.0279e-09  0:00:03   68
  1933  1.3280e-08  4.6186e-09  2.9744e-09  2.6573e-03  1.1364e-08  8.3582e-09  1.0230e-09  0:00:02   67
  1934  1.3212e-08  4.5950e-09  2.9349e-09  2.6508e-03  1.1303e-08  8.3250e-09  1.0181e-09  0:00:02   66
  1935  1.3145e-08  4.5705e-09  2.8961e-09  2.6440e-03  1.1244e-08  8.2918e-09  1.0133e-09  0:00:14   65
  1936  1.3079e-08  4.5454e-09  2.8582e-09  2.6369e-03  1.1187e-08  8.2588e-09  1.0084e-09  0:00:11   64

  iter  continuity  x-velocity  y-velocity  z-velocity      energy           k       omega     time/iter
  1937  1.3015e-08  4.5196e-09  2.8213e-09  2.6295e-03  1.1131e-08  8.2265e-09  1.0035e-09  0:00:09   63
  1938  1.2953e-08  4.4932e-09  2.7857e-09  2.6218e-03  1.1076e-08  8.1955e-09  9.9849e-10  0:00:07   62
  1939  1.2892e-08  4.4665e-09  2.7515e-09  2.6139e-03  1.1023e-08  8.1654e-09  9.9354e-10  0:00:05   61
  1940  1.2832e-08  4.4395e-09  2.7189e-09  2.6057e-03  1.0972e-08  8.1355e-09  9.8855e-10  0:00:04   60
  1941  1.2774e-08  4.4123e-09  2.6881e-09  2.5973e-03  1.0922e-08  8.1058e-09  9.8356e-10  0:00:03   59
  1942  1.2717e-08  4.3850e-09  2.6592e-09  2.5886e-03  1.0873e-08  8.0763e-09  9.7858e-10  0:00:03   58
  1943  1.2662e-08  4.3577e-09  2.6323e-09  2.5798e-03  1.0826e-08  8.0469e-09  9.7369e-10  0:00:02   57
  1944  1.2608e-08  4.3305e-09  2.6074e-09  2.5707e-03  1.0781e-08  8.0178e-09  9.6886e-10  0:00:02   56
  1945  1.2556e-08  4.3035e-09  2.5847e-09  2.5615e-03  1.0736e-08  7.9897e-09  9.6402e-10  0:00:12   55
  1946  1.2505e-08  4.2769e-09  2.5643e-09  2.5521e-03  1.0693e-08  7.9621e-09  9.5914e-10  0:00:10   54
  1947  1.2455e-08  4.2507e-09  2.5460e-09  2.5427e-03  1.0652e-08  7.9347e-09  9.5424e-10  0:00:08   53

  iter  continuity  x-velocity  y-velocity  z-velocity      energy           k       omega     time/iter
  1948  1.2407e-08  4.2249e-09  2.5300e-09  2.5331e-03  1.0611e-08  7.9086e-09  9.4931e-10  0:00:06   52
  1949  1.2359e-08  4.1997e-09  2.5163e-09  2.5235e-03  1.0572e-08  7.8833e-09  9.4442e-10  0:00:05   51
  1950  1.2313e-08  4.1751e-09  2.5047e-09  2.5138e-03  1.0533e-08  7.8579e-09  9.3956e-10  0:00:04   50
  1951  1.2268e-08  4.1511e-09  2.4953e-09  2.5042e-03  1.0496e-08  7.8326e-09  9.3473e-10  0:00:03   49
  1952  1.2223e-08  4.1279e-09  2.4880e-09  2.4945e-03  1.0459e-08  7.8074e-09  9.2990e-10  0:00:02   48
  1953  1.2179e-08  4.1055e-09  2.4827e-09  2.4849e-03  1.0423e-08  7.7821e-09  9.2507e-10  0:00:02   47
  1954  1.2136e-08  4.0839e-09  2.4792e-09  2.4754e-03  1.0387e-08  7.7568e-09  9.2026e-10  0:00:01   46
  1955  1.2094e-08  4.0631e-09  2.4776e-09  2.4660e-03  1.0352e-08  7.7318e-09  9.1551e-10  0:00:10   45
  1956  1.2052e-08  4.0432e-09  2.4775e-09  2.4567e-03  1.0318e-08  7.7066e-09  9.1076e-10  0:00:08   44
  1957  1.2010e-08  4.0241e-09  2.4790e-09  2.4475e-03  1.0283e-08  7.6813e-09  9.0604e-10  0:00:06   43
  1958  1.1969e-08  4.0059e-09  2.4818e-09  2.4385e-03  1.0249e-08  7.6558e-09  9.0135e-10  0:00:05   42

  iter  continuity  x-velocity  y-velocity  z-velocity      energy           k       omega     time/iter
  1959  1.1927e-08  3.9887e-09  2.4857e-09  2.4296e-03  1.0215e-08  7.6301e-09  8.9667e-10  0:00:04   41
  1960  1.1886e-08  3.9723e-09  2.4906e-09  2.4210e-03  1.0181e-08  7.6043e-09  8.9203e-10  0:00:03   40
  1961  1.1845e-08  3.9568e-09  2.4964e-09  2.4125e-03  1.0146e-08  7.5781e-09  8.8742e-10  0:00:02   39
  1962  1.1804e-08  3.9421e-09  2.5028e-09  2.4043e-03  1.0112e-08  7.5516e-09  8.8286e-10  0:00:02   38
  1963  1.1762e-08  3.9284e-09  2.5096e-09  2.3963e-03  1.0077e-08  7.5248e-09  8.7836e-10  0:00:01   37
  1964  1.1721e-08  3.9154e-09  2.5166e-09  2.3886e-03  1.0042e-08  7.4977e-09  8.7396e-10  0:00:01   36
  1965  1.1679e-08  3.9033e-09  2.5238e-09  2.3810e-03  1.0006e-08  7.4702e-09  8.6962e-10  0:00:01   35
  1966  1.1636e-08  3.8919e-09  2.5308e-09  2.3737e-03  9.9701e-09  7.4423e-09  8.6536e-10  0:00:07   34
  1967  1.1593e-08  3.8813e-09  2.5376e-09  2.3667e-03  9.9335e-09  7.4140e-09  8.6121e-10  0:00:06   33
  1968  1.1550e-08  3.8714e-09  2.5439e-09  2.3599e-03  9.8964e-09  7.3854e-09  8.5725e-10  0:00:04   32
  1969  1.1506e-08  3.8621e-09  2.5496e-09  2.3533e-03  9.8586e-09  7.3563e-09  8.5345e-10  0:00:03   31

  iter  continuity  x-velocity  y-velocity  z-velocity      energy           k       omega     time/iter
  1970  1.1462e-08  3.8534e-09  2.5545e-09  2.3469e-03  9.8203e-09  7.3267e-09  8.4985e-10  0:00:03   30
  1971  1.1417e-08  3.8453e-09  2.5586e-09  2.3408e-03  9.7814e-09  7.2967e-09  8.4637e-10  0:00:02   29
  1972  1.1372e-08  3.8376e-09  2.5616e-09  2.3349e-03  9.7418e-09  7.2666e-09  8.4299e-10  0:00:02   28
  1973  1.1326e-08  3.8304e-09  2.5634e-09  2.3291e-03  9.7016e-09  7.2365e-09  8.3970e-10  0:00:01   27
  1974  1.1279e-08  3.8236e-09  2.5640e-09  2.3235e-03  9.6609e-09  7.2061e-09  8.3649e-10  0:00:06   26
  1975  1.1232e-08  3.8170e-09  2.5632e-09  2.3181e-03  9.6195e-09  7.1752e-09  8.3335e-10  0:00:05   25
  1976  1.1185e-08  3.8106e-09  2.5611e-09  2.3129e-03  9.5776e-09  7.1439e-09  8.3029e-10  0:00:04   24
  1977  1.1137e-08  3.8044e-09  2.5574e-09  2.3077e-03  9.5352e-09  7.1123e-09  8.2734e-10  0:00:03   23
  1978  1.1089e-08  3.7983e-09  2.5523e-09  2.3027e-03  9.4922e-09  7.0804e-09  8.2445e-10  0:00:02   22
  1979  1.1040e-08  3.7921e-09  2.5456e-09  2.2978e-03  9.4489e-09  7.0485e-09  8.2162e-10  0:00:02   21
  1980  1.0991e-08  3.7859e-09  2.5373e-09  2.2929e-03  9.4052e-09  7.0163e-09  8.1884e-10  0:00:01   20

  iter  continuity  x-velocity  y-velocity  z-velocity      energy           k       omega     time/iter
  1981  1.0941e-08  3.7795e-09  2.5274e-09  2.2880e-03  9.3611e-09  6.9837e-09  8.1612e-10  0:00:01   19
  1982  1.0891e-08  3.7728e-09  2.5161e-09  2.2832e-03  9.3168e-09  6.9509e-09  8.1347e-10  0:00:01   18
  1983  1.0841e-08  3.7658e-09  2.5032e-09  2.2784e-03  9.2722e-09  6.9179e-09  8.1088e-10  0:00:01   17
  1984  1.0791e-08  3.7585e-09  2.4888e-09  2.2735e-03  9.2276e-09  6.8847e-09  8.0833e-10  0:00:04   16
  1985  1.0741e-08  3.7507e-09  2.4730e-09  2.2686e-03  9.1828e-09  6.8515e-09  8.0580e-10  0:00:03   15
  1986  1.0691e-08  3.7424e-09  2.4558e-09  2.2637e-03  9.1381e-09  6.8182e-09  8.0330e-10  0:00:02   14
  1987  1.0641e-08  3.7335e-09  2.4373e-09  2.2587e-03  9.0934e-09  6.7849e-09  8.0081e-10  0:00:02   13
  1988  1.0591e-08  3.7240e-09  2.4176e-09  2.2535e-03  9.0489e-09  6.7516e-09  7.9835e-10  0:00:01   12
  1989  1.0541e-08  3.7139e-09  2.3967e-09  2.2482e-03  9.0046e-09  6.7182e-09  7.9591e-10  0:00:01   11
  1990  1.0492e-08  3.7031e-09  2.3749e-09  2.2428e-03  8.9606e-09  6.6849e-09  7.9347e-10  0:00:01   10
  1991  1.0443e-08  3.6915e-09  2.3521e-09  2.2373e-03  8.9170e-09  6.6518e-09  7.9104e-10  0:00:00    9

  iter  continuity  x-velocity  y-velocity  z-velocity      energy           k       omega     time/iter
  1992  1.0394e-08  3.6792e-09  2.3286e-09  2.2316e-03  8.8738e-09  6.6189e-09  7.8863e-10  0:00:00    8
  1993  1.0346e-08  3.6662e-09  2.3043e-09  2.2256e-03  8.8312e-09  6.5860e-09  7.8622e-10  0:00:00    7
  1994  1.0298e-08  3.6524e-09  2.2795e-09  2.2195e-03  8.7891e-09  6.5534e-09  7.8383e-10  0:00:00    6
  1995  1.0251e-08  3.6378e-09  2.2542e-09  2.2132e-03  8.7476e-09  6.5209e-09  7.8144e-10  0:00:01    5
  1996  1.0205e-08  3.6225e-09  2.2286e-09  2.2067e-03  8.7069e-09  6.4886e-09  7.7906e-10  0:00:01    4
  1997  1.0159e-08  3.6065e-09  2.2029e-09  2.1999e-03  8.6669e-09  6.4567e-09  7.7668e-10  0:00:00    3
  1998  1.0114e-08  3.5897e-09  2.1770e-09  2.1929e-03  8.6277e-09  6.4252e-09  7.7429e-10  0:00:00    2
  1999  1.0070e-08  3.5724e-09  2.1512e-09  2.1857e-03  8.5894e-09  6.3945e-09  7.7189e-10  0:00:00    1
  2000  1.0027e-08  3.5543e-09  2.1257e-09  2.1782e-03  8.5520e-09  6.3647e-09  7.6946e-10  0:00:00    0

> 
adjoint/                parallel/               server/
define/                 parametric-study/       solve/
display/                plot/                   surface/
exit                    preferences/            turbo-workflow/
file/                   print-license-usage     views/
mesh/                   report/

> /file/write-case-data project1
Fast-loading "C:\PROGRA~1\ANSYSI~1\v231\fluent\fluent23.1.0\\addons\afd\lib\hdfio.bin"
Done.

Writing to Engs-30669:"C:\Users\kebl7595\Desktop\CFD\Runs\Viscous\30 degree\project1.cas.h5" in NODE0 mode and compression level 1 ...
       12996 cells,     1 zone  ...
       43722 faces,     8 zones ...
       17864 nodes,     1 zone  ...
  Done.
Done.

Writing to Engs-30669:"C:\Users\kebl7595\Desktop\CFD\Runs\Viscous\30 degree\project1.dat.h5" in NODE0 mode and compression level 1 ...
  Writing results.
Done.

> /file/export/ascii "./surface.dat" wing te () no pressure mach-number quit no

Writing "./surface.dat"...

Writing information to ascii file ...
Done.


> /report/forces/wall-forces y -0.5 0.86603 0 y "Lift"

> /report/forces/wall-forces y 0.86603 0.5 0 y "Drag"

> /exit

Posting ANSYS Product Improvement Program performance data 
Done.
Auto-Transcript Stop Time:  10:50:33, 21 May 2024 GMT Daylight Time 
Total Transcript Time: 5 Minute 18 Second.
