Auto-Transcript Start Time:  14:39:23, 20 May 2024 GMT Daylight Time 
Current Directory: "C:\Users\kebl7595\Desktop\CFD\Runs\Actual Data\6 degrees"

              Welcome to ANSYS Fluent 2023 R1

              Copyright 1987-2023 ANSYS, Inc. All Rights Reserved.
              Unauthorized use, distribution or duplication is prohibited.
              This product is subject to U.S. laws governing export and re-export.
              For full Legal Notice, see documentation.

Build Time: Nov 28 2022 09:52:02 EST  Build Id: 10208  
 
Connected License Server List:	1055@ansyslic.eng.ox.ac.uk

*********************************************
Info: Your license enables 4-way parallel execution.
For faster simulations, please start the application with the appropriate parallel options.
*********************************************


     --------------------------------------------------------------
     This is an academic version of ANSYS FLUENT. Usage of this product
     license is limited to the terms and conditions specified in your ANSYS
     license form, additional terms section.
     --------------------------------------------------------------
Host spawning Node 0 on machine "Engs-30669" (win64).

------------------------------------------------------------------------------------
ID    Hostname    Core  O.S.         PID    Vendor                                 
------------------------------------------------------------------------------------
n0    Engs-30669  1/32  Windows-x64  17600  13th Gen Intel(R) Core(TM) i9-13900    
host  Engs-30669        Windows-x64  11216  13th Gen Intel(R) Core(TM) i9-13900    

MPI Option Selected: intel
------------------------------------------------------------------------------------

Cleanup script file is C:\\Users\\kebl7595\\Desktop\\CFD\\Runs\\Actual Data\\6 degrees\\cleanup-fluent-Engs-30669-11216.bat
QA Service Message :
QA Services Agreement Enabled. This application is included in the scope of an ANSYS QA Services Agreement.
Posting ANSYS Product Improvement Program startup data
Done.

Reading journal file C:/Users/kebl7595/Desktop/CFD/Runs/Actual Data/6 degrees/project1.jou...

> /file/set-batch-options no no no 

> 
define/                 parametric-study/       solve/
display/                plot/                   surface/
exit                    preferences/            switch-to-meshing-mode
file/                   print-license-usage     turbo-workflow/
mesh/                   report/                 views/
parallel/               server/

> /file/import/cgns/mesh  "./project1.cgns"
Engs-30669 has other FLUENT parallel processes running.                       Process affinity not being set.

Importing "./project1.cgns"

Opening library "C:\\PROGRA~1\\ANSYSI~1\\v231\\fluent\\fluent23.1.0\\vki\\win64\\devtools4.4.6.dll"... done.

Read    17864 nodes
   12996 hexahedral cells, zone  1
    9462 quadrilateral wall faces, zone  2.
   33972 quadrilateral interior faces, zone  3.
     282 quadrilateral interface faces, zone  4.
       6 quadrilateral wall faces, zone  5.

Building...
     mesh
     materials,
     interface,
     domains,
     zones,
	default_exterior-1
	interface-default_subface
	default_interior-1
	default_subface
	default
     parallel,
The automatic selection for flux type has changed to Rhie-Chow: momentum based.

Done.


> 
adjoint/                parallel/               server/
define/                 parametric-study/       solve/
display/                plot/                   surface/
exit                    preferences/            turbo-workflow/
file/                   print-license-usage     views/
mesh/                   report/

> /define/models/solver/density-based-implicit yes

> 
adjoint/                parallel/               server/
define/                 parametric-study/       solve/
display/                plot/                   surface/
exit                    preferences/            turbo-workflow/
file/                   print-license-usage     views/
mesh/                   report/

> /define/models/energy? yes yes invalid command [yes]
yes

> /define/models/viscous/inviscid yes

> 
adjoint/                parallel/               server/
define/                 parametric-study/       solve/
display/                plot/                   surface/
exit                    preferences/            turbo-workflow/
file/                   print-license-usage     views/
mesh/                   report/

> /define/materials/change-create air air air is a fluid
yes 
Density
ideal-gas no data required.

no no no no 

> 
adjoint/                parallel/               server/
define/                 parametric-study/       solve/
display/                plot/                   surface/
exit                    preferences/            turbo-workflow/
file/                   print-license-usage     views/
mesh/                   report/

> /mesh/modify-zones/sep-face-zone-angle 2 90 yes

 4332 faces in contiguous region 0
 228 faces in contiguous region 1
 342 faces in contiguous region 2
 4332 faces in contiguous region 3
 228 faces in contiguous region 4
 Separates zone 2 into 5 zone(s).
Updating new zone information...
   created new zone default_subface:010 from default_subface
   created new zone default_subface:009 from default_subface
   created new zone default_subface:008 from default_subface
   created new zone default_subface:007 from default_subface
done.

> 
adjoint/                parallel/               server/
define/                 parametric-study/       solve/
display/                plot/                   surface/
exit                    preferences/            turbo-workflow/
file/                   print-license-usage     views/
mesh/                   report/

> /define/boundary-conditions/zone-name  5   te

> /define/boundary-conditions/zone-name  7 wing

> /define/boundary-conditions/zone-name  2 sym1

> /define/boundary-conditions/zone-name  9 sym2

> 
adjoint/                parallel/               server/
define/                 parametric-study/       solve/
display/                plot/                   surface/
exit                    preferences/            turbo-workflow/
file/                   print-license-usage     views/
mesh/                   report/

> /define/boundary-conditions/zone-name  8 far1

> /define/boundary-conditions/zone-name 10 far2

> 
adjoint/                parallel/               server/
define/                 parametric-study/       solve/
display/                plot/                   surface/
exit                    preferences/            turbo-workflow/
file/                   print-license-usage     views/
mesh/                   report/

> /define/boundary-conditions/zone-type  8 pressure-far-field

> /define/boundary-conditions/zone-type 10 pressure-far-field

> /define/boundary-conditions/zone-type  2 symmetry

> /define/boundary-conditions/zone-type  9 symmetry

> 
adjoint/                parallel/               server/
define/                 parametric-study/       solve/
display/                plot/                   surface/
exit                    preferences/            turbo-workflow/
file/                   print-license-usage     views/
mesh/                   report/

> /define/boundary-conditions/pressure-far-field (far2 far1)
far1 no 0 no 0.1 no 300 yes no 0.99452 no 0.10453 no 0

> /define/boundary-conditions/pressure-far-field (far2 far1)
far2 no 0 no 0.1 no 300 yes no 0.99452 no 0.10453 no 0

> 
adjoint/                parallel/               server/
define/                 parametric-study/       solve/
display/                plot/                   surface/
exit                    preferences/            turbo-workflow/
file/                   print-license-usage     views/
mesh/                   report/

> /solve/initialize/compute-defaults/pressure-far-field (far2 far1)
far1

> /solve/initialize/initialize-flow

> 
adjoint/                parallel/               server/
define/                 parametric-study/       solve/
display/                plot/                   surface/
exit                    preferences/            turbo-workflow/
file/                   print-license-usage     views/
mesh/                   report/

> /solve/monitors/residual/convergence-criteria 1.e-9 1.e-9 1.e-9 1.e-9 1.e-9

> /solve/iterate 2000

  iter  continuity  x-velocity  y-velocity  z-velocity      energy     time/iter
     1  1.0000e+00  1.0000e+00  1.0000e+00  0.0000e+00  1.0000e+00  0:00:00 1999
     2  5.4360e-01  5.6296e-01  3.4171e-01  1.0000e+00  5.4428e-01  0:33:18 1998
     3  2.8718e-01  2.2532e-01  2.5497e-01  8.7851e-01  2.8743e-01  0:26:38 1997
     4  1.8044e-01  1.8161e-01  1.6910e-01  5.8699e-01  1.8050e-01  0:21:17 1996
     5  1.3936e-01  1.3457e-01  1.1029e-01  6.2420e-01  1.3945e-01  0:17:01 1995
     6  1.1629e-01  9.4093e-02  7.6510e-02  7.3669e-01  1.1644e-01  0:13:37 1994
     7  1.0023e-01  6.6662e-02  5.6362e-02  8.1800e-01  1.0040e-01  0:10:53 1993
     8  8.7861e-02  5.0035e-02  4.3085e-02  7.1977e-01  8.8038e-02  0:08:42 1992
     9  7.8054e-02  4.0440e-02  3.3868e-02  6.3678e-01  7.8228e-02  0:13:36 1991
    10  7.0692e-02  3.5267e-02  2.7388e-02  5.8881e-01  7.0859e-02  0:10:52 1990
    11  6.5045e-02  3.2781e-02  2.2780e-02  5.5245e-01  6.5201e-02  0:08:42 1989

  iter  continuity  x-velocity  y-velocity  z-velocity      energy     time/iter
    12  6.1106e-02  3.1992e-02  1.9511e-02  5.2246e-01  6.1252e-02  0:06:57 1988
    13  5.8521e-02  3.2119e-02  1.7176e-02  5.0374e-01  5.8659e-02  0:05:33 1987
    14  5.7150e-02  3.2928e-02  1.5440e-02  5.0015e-01  5.7280e-02  0:04:27 1986
    15  5.6746e-02  3.4183e-02  1.4331e-02  5.0755e-01  5.6869e-02  0:03:33 1985
    16  5.7116e-02  3.5719e-02  1.3662e-02  5.2001e-01  5.7233e-02  0:02:50 1984
    17  5.8129e-02  3.7415e-02  1.3321e-02  5.3849e-01  5.8238e-02  0:02:16 1983
    18  5.9583e-02  3.9095e-02  1.3258e-02  5.5717e-01  5.9686e-02  0:01:49 1982
    19  6.1331e-02  4.0694e-02  1.3389e-02  5.7646e-01  6.1425e-02  0:01:27 1981
    20  6.3158e-02  4.2054e-02  1.3708e-02  5.9924e-01  6.3244e-02  0:01:10 1980
    21  6.4673e-02  4.3030e-02  1.4293e-02  6.2214e-01  6.4748e-02  0:00:56 1979
    22  6.5747e-02  4.3634e-02  1.5062e-02  6.4395e-01  6.5812e-02  0:07:20 1978

  iter  continuity  x-velocity  y-velocity  z-velocity      energy     time/iter
    23  6.6259e-02  4.3831e-02  1.5898e-02  6.6166e-01  6.6311e-02  0:05:52 1977
    24  6.6202e-02  4.3666e-02  1.6569e-02  6.7308e-01  6.6241e-02  0:04:41 1976
    25  6.5636e-02  4.3116e-02  1.7061e-02  6.7586e-01  6.5663e-02  0:03:45 1975
    26  6.4575e-02  4.2122e-02  1.7465e-02  6.6870e-01  6.4590e-02  0:03:00 1974
    27  6.3020e-02  4.0815e-02  1.7615e-02  6.5058e-01  6.3024e-02  0:02:24 1973
    28  6.1063e-02  3.9251e-02  1.7463e-02  6.2101e-01  6.1057e-02  0:01:55 1972
    29  5.8681e-02  3.7432e-02  1.7122e-02  5.8605e-01  5.8666e-02  0:01:32 1971
    30  5.5598e-02  3.5350e-02  1.6759e-02  5.4272e-01  5.5576e-02  0:01:14 1970
    31  5.1773e-02  3.3179e-02  1.6350e-02  4.9454e-01  5.1744e-02  0:00:59 1969
    32  4.7288e-02  3.1012e-02  1.5792e-02  4.4713e-01  4.7255e-02  0:00:47 1968
    33  4.2423e-02  2.9121e-02  1.5009e-02  4.1006e-01  4.2386e-02  0:00:38 1967

  iter  continuity  x-velocity  y-velocity  z-velocity      energy     time/iter
    34  3.7446e-02  2.7539e-02  1.4273e-02  3.8765e-01  3.7408e-02  0:07:03 1966
    35  3.2416e-02  2.6343e-02  1.3519e-02  3.8469e-01  3.2379e-02  0:05:38 1965
    36  2.7462e-02  2.5621e-02  1.2866e-02  4.0222e-01  2.7425e-02  0:04:31 1964
    37  2.2448e-02  2.5375e-02  1.2457e-02  4.3649e-01  2.2413e-02  0:03:36 1963
    38  1.7582e-02  2.5678e-02  1.2302e-02  4.8187e-01  1.7548e-02  0:02:53 1962
    39  1.2988e-02  2.6461e-02  1.2351e-02  5.3225e-01  1.2954e-02  0:02:18 1961
    40  9.5572e-03  2.7645e-02  1.2567e-02  5.8153e-01  9.5232e-03  0:01:51 1960
    41  8.3817e-03  2.9032e-02  1.2946e-02  6.2771e-01  8.3507e-03  0:01:28 1959
    42  9.7466e-03  3.0492e-02  1.3400e-02  6.6787e-01  9.7222e-03  0:01:11 1958
    43  1.2554e-02  3.1924e-02  1.3875e-02  7.0090e-01  1.2534e-02  0:00:57 1957
    44  1.5870e-02  3.3247e-02  1.4326e-02  7.2344e-01  1.5852e-02  0:00:45 1956

  iter  continuity  x-velocity  y-velocity  z-velocity      energy     time/iter
    45  1.8998e-02  3.4400e-02  1.4726e-02  7.3182e-01  1.8980e-02  0:00:36 1955
    46  2.1879e-02  3.5345e-02  1.5050e-02  7.2556e-01  2.1862e-02  0:00:29 1954
    47  2.4445e-02  3.6048e-02  1.5289e-02  7.0876e-01  2.4428e-02  0:06:54 1953
    48  2.6660e-02  3.6519e-02  1.5424e-02  6.8615e-01  2.6643e-02  0:05:31 1952
    49  2.8504e-02  3.6724e-02  1.5450e-02  6.4921e-01  2.8487e-02  0:04:25 1951
    50  2.9999e-02  3.6667e-02  1.5379e-02  6.0383e-01  2.9984e-02  0:03:31 1950
    51  3.1170e-02  3.6382e-02  1.5216e-02  5.5208e-01  3.1156e-02  0:02:49 1949
    52  3.2037e-02  3.5898e-02  1.4966e-02  4.9187e-01  3.2024e-02  0:02:15 1948
    53  3.2612e-02  3.5209e-02  1.4648e-02  4.3705e-01  3.2601e-02  0:01:48 1947
    54  3.2881e-02  3.4341e-02  1.4269e-02  3.8556e-01  3.2872e-02  0:01:26 1946
    55  3.2797e-02  3.3267e-02  1.3851e-02  3.4254e-01  3.2791e-02  0:01:09 1945

  iter  continuity  x-velocity  y-velocity  z-velocity      energy     time/iter
    56  3.2387e-02  3.2093e-02  1.3370e-02  3.1300e-01  3.2382e-02  0:00:55 1944
    57  3.1691e-02  3.0803e-02  1.2845e-02  3.0395e-01  3.1688e-02  0:00:44 1943
    58  3.0760e-02  2.9379e-02  1.2295e-02  3.1520e-01  3.0758e-02  0:00:35 1942
    59  2.9628e-02  2.7874e-02  1.1717e-02  3.4090e-01  2.9628e-02  0:06:56 1941
    60  2.8321e-02  2.6306e-02  1.1119e-02  3.7590e-01  2.8322e-02  0:05:33 1940
    61  2.6818e-02  2.4700e-02  1.0514e-02  4.1345e-01  2.6820e-02  0:04:26 1939
    62  2.5136e-02  2.3085e-02  9.9056e-03  4.4928e-01  2.5139e-02  0:03:33 1938
    63  2.3302e-02  2.1485e-02  9.2978e-03  4.8082e-01  2.3305e-02  0:02:50 1937
    64  2.1348e-02  1.9892e-02  8.6990e-03  5.0876e-01  2.1352e-02  0:02:16 1936
    65  1.9303e-02  1.8428e-02  8.0937e-03  5.2517e-01  1.9306e-02  0:01:49 1935
    66  1.7187e-02  1.7077e-02  7.4974e-03  5.2762e-01  1.7191e-02  0:01:27 1934

  iter  continuity  x-velocity  y-velocity  z-velocity      energy     time/iter
    67  1.5026e-02  1.5851e-02  6.9196e-03  5.2633e-01  1.5029e-02  0:01:10 1933
    68  1.2850e-02  1.4814e-02  6.3634e-03  5.1922e-01  1.2852e-02  0:00:56 1932
    69  1.0698e-02  1.3995e-02  5.8297e-03  5.0590e-01  1.0699e-02  0:00:44 1931
    70  8.6345e-03  1.3448e-02  5.3327e-03  4.8386e-01  8.6335e-03  0:07:02 1930
    71  6.7571e-03  1.3208e-02  4.8864e-03  4.5657e-01  6.7538e-03  0:05:37 1929
    72  5.2683e-03  1.3274e-02  4.5013e-03  4.2713e-01  5.2617e-03  0:04:30 1928
    73  4.5692e-03  1.3615e-02  4.1850e-03  3.9906e-01  4.5592e-03  0:03:36 1927
    74  4.9851e-03  1.4182e-02  3.9543e-03  3.7544e-01  4.9738e-03  0:02:52 1926
    75  6.2669e-03  1.4909e-02  3.8139e-03  3.6058e-01  6.2563e-03  0:02:18 1925
    76  7.9601e-03  1.5729e-02  3.7652e-03  3.5817e-01  7.9504e-03  0:01:50 1924
    77  9.8031e-03  1.6596e-02  3.7942e-03  3.6997e-01  9.7938e-03  0:01:28 1923

  iter  continuity  x-velocity  y-velocity  z-velocity      energy     time/iter
    78  1.1672e-02  1.7455e-02  3.8865e-03  3.9321e-01  1.1662e-02  0:01:10 1922
    79  1.3490e-02  1.8261e-02  4.0207e-03  4.2970e-01  1.3480e-02  0:00:56 1921
    80  1.5229e-02  1.8986e-02  4.1810e-03  4.6926e-01  1.5218e-02  0:00:45 1920
    81  1.6862e-02  1.9602e-02  4.3477e-03  5.1402e-01  1.6850e-02  0:00:36 1919
    82  1.8362e-02  2.0092e-02  4.5026e-03  5.5571e-01  1.8349e-02  0:00:29 1918
    83  1.9688e-02  2.0434e-02  4.6350e-03  5.9051e-01  1.9673e-02  0:06:46 1917
    84  2.0785e-02  2.0619e-02  4.7446e-03  6.1533e-01  2.0768e-02  0:05:25 1916
    85  2.1640e-02  2.0647e-02  4.8231e-03  6.3025e-01  2.1621e-02  0:04:20 1915
    86  2.2261e-02  2.0513e-02  4.8652e-03  6.3459e-01  2.2240e-02  0:03:28 1914
    87  2.2636e-02  2.0220e-02  4.8633e-03  6.2755e-01  2.2612e-02  0:02:46 1913
    88  2.2782e-02  1.9776e-02  4.8155e-03  6.1192e-01  2.2756e-02  0:02:13 1912

  iter  continuity  x-velocity  y-velocity  z-velocity      energy     time/iter
    89  2.2726e-02  1.9196e-02  4.7280e-03  5.8473e-01  2.2697e-02  0:01:46 1911
    90  2.2431e-02  1.8497e-02  4.5896e-03  5.4733e-01  2.2400e-02  0:01:25 1910
    91  2.1932e-02  1.7712e-02  4.4195e-03  5.0176e-01  2.1898e-02  0:01:08 1909
    92  2.1271e-02  1.6872e-02  4.2488e-03  4.4684e-01  2.1235e-02  0:00:54 1908
    93  2.0448e-02  1.6030e-02  4.1183e-03  3.8470e-01  2.0411e-02  0:00:43 1907
    94  1.9467e-02  1.5220e-02  4.0540e-03  3.2884e-01  1.9429e-02  0:00:35 1906
    95  1.8346e-02  1.4486e-02  4.0716e-03  2.7569e-01  1.8307e-02  0:00:28 1905
    96  1.7104e-02  1.3901e-02  4.1888e-03  2.3767e-01  1.7064e-02  0:06:43 1904
    97  1.5760e-02  1.3509e-02  4.4083e-03  2.2726e-01  1.5720e-02  0:05:22 1903
    98  1.4308e-02  1.3364e-02  4.7262e-03  2.5206e-01  1.4268e-02  0:04:18 1902
    99  1.2749e-02  1.3478e-02  5.1010e-03  3.0359e-01  1.2710e-02  0:03:26 1901

  iter  continuity  x-velocity  y-velocity  z-velocity      energy     time/iter
   100  1.1096e-02  1.3795e-02  5.5345e-03  3.6910e-01  1.1057e-02  0:02:45 1900
   101  9.3646e-03  1.4292e-02  6.0018e-03  4.3932e-01  9.3273e-03  0:02:12 1899
   102  7.6516e-03  1.4963e-02  6.4677e-03  5.0967e-01  7.6155e-03  0:01:45 1898
   103  6.0320e-03  1.5749e-02  6.9118e-03  5.7640e-01  5.9974e-03  0:01:24 1897
   104  4.5797e-03  1.6576e-02  7.3210e-03  6.3633e-01  4.5476e-03  0:01:07 1896
   105  3.5454e-03  1.7407e-02  7.6928e-03  6.8762e-01  3.5190e-03  0:00:54 1895
   106  3.2182e-03  1.8206e-02  8.0123e-03  7.2722e-01  3.2032e-03  0:00:43 1894
   107  3.6934e-03  1.8892e-02  8.2745e-03  7.5380e-01  3.6900e-03  0:00:34 1893
   108  4.6376e-03  1.9492e-02  8.4704e-03  7.7527e-01  4.6407e-03  0:00:28 1892
   109  5.7509e-03  2.0001e-02  8.5910e-03  7.8675e-01  5.7565e-03  0:00:22 1891
   110  6.8890e-03  2.0391e-02  8.6382e-03  7.8952e-01  6.8952e-03  0:06:36 1890

  iter  continuity  x-velocity  y-velocity  z-velocity      energy     time/iter
   111  7.9766e-03  2.0647e-02  8.6140e-03  7.8166e-01  7.9825e-03  0:05:16 1889
   112  8.9791e-03  2.0766e-02  8.5197e-03  7.7000e-01  8.9843e-03  0:04:13 1888
   113  9.8729e-03  2.0747e-02  8.3604e-03  7.5277e-01  9.8770e-03  0:03:22 1887
   114  1.0644e-02  2.0605e-02  8.1358e-03  7.2149e-01  1.0647e-02  0:02:42 1886
   115  1.1283e-02  2.0338e-02  7.8550e-03  6.8181e-01  1.1285e-02  0:02:09 1885
   116  1.1784e-02  1.9956e-02  7.5265e-03  6.3383e-01  1.1785e-02  0:01:43 1884
   117  1.2141e-02  1.9451e-02  7.1610e-03  5.7904e-01  1.2141e-02  0:01:23 1883
   118  1.2352e-02  1.8859e-02  6.7617e-03  5.1924e-01  1.2351e-02  0:01:06 1882
   119  1.2417e-02  1.8187e-02  6.3348e-03  4.5500e-01  1.2416e-02  0:00:53 1881
   120  1.2341e-02  1.7447e-02  5.8899e-03  3.8700e-01  1.2339e-02  0:00:42 1880
   121  1.2127e-02  1.6655e-02  5.4348e-03  3.1650e-01  1.2125e-02  0:00:34 1879

  iter  continuity  x-velocity  y-velocity  z-velocity      energy     time/iter
   122  1.1784e-02  1.5824e-02  4.9791e-03  2.4894e-01  1.1781e-02  0:00:27 1878
   123  1.1321e-02  1.4974e-02  4.5286e-03  1.8620e-01  1.1317e-02  0:00:22 1877
   124  1.0746e-02  1.4118e-02  4.0837e-03  1.3756e-01  1.0742e-02  0:06:32 1876
   125  1.0067e-02  1.3292e-02  3.6584e-03  1.2216e-01  1.0063e-02  0:05:14 1875
   126  9.3037e-03  1.2501e-02  3.2673e-03  1.4627e-01  9.2998e-03  0:04:11 1874
   127  8.4717e-03  1.1788e-02  2.9210e-03  1.9206e-01  8.4678e-03  0:03:21 1873
   128  7.5831e-03  1.1208e-02  2.6000e-03  2.4368e-01  7.5791e-03  0:02:40 1872
   129  6.6446e-03  1.0730e-02  2.3403e-03  2.9522e-01  6.6406e-03  0:02:08 1871
   130  5.6744e-03  1.0353e-02  2.1578e-03  3.4413e-01  5.6705e-03  0:01:43 1870
   131  4.6922e-03  1.0087e-02  2.0576e-03  3.8892e-01  4.6884e-03  0:01:22 1869
   132  3.7200e-03  9.9406e-03  2.0302e-03  4.2834e-01  3.7163e-03  0:01:06 1868

  iter  continuity  x-velocity  y-velocity  z-velocity      energy     time/iter
   133  2.8039e-03  9.8632e-03  2.0593e-03  4.6125e-01  2.8004e-03  0:00:52 1867
   134  2.0329e-03  9.7660e-03  2.1217e-03  4.8830e-01  2.0296e-03  0:00:42 1866
   135  1.6165e-03  9.7404e-03  2.1954e-03  5.0979e-01  1.6140e-03  0:00:34 1865
   136  1.7714e-03  9.7809e-03  2.2750e-03  5.2523e-01  1.7702e-03  0:00:27 1864
   137  2.3372e-03  9.8515e-03  2.3616e-03  5.3587e-01  2.3367e-03  0:00:21 1863
   138  3.0453e-03  9.9293e-03  2.4459e-03  5.4323e-01  3.0450e-03  0:06:30 1862
   139  3.7715e-03  1.0005e-02  2.5231e-03  5.4437e-01  3.7710e-03  0:05:11 1861
   140  4.4640e-03  1.0067e-02  2.5873e-03  5.4238e-01  4.4631e-03  0:04:09 1860
   141  5.1025e-03  1.0099e-02  2.6349e-03  5.3815e-01  5.1012e-03  0:03:19 1859
   142  5.6752e-03  1.0095e-02  2.6645e-03  5.2890e-01  5.6735e-03  0:02:39 1858
   143  6.1731e-03  1.0051e-02  2.6764e-03  5.1508e-01  6.1710e-03  0:02:07 1857

  iter  continuity  x-velocity  y-velocity  z-velocity      energy     time/iter
   144  6.5902e-03  9.9609e-03  2.6705e-03  4.9883e-01  6.5876e-03  0:01:42 1856
   145  6.9226e-03  9.8263e-03  2.6477e-03  4.7801e-01  6.9196e-03  0:01:21 1855
   146  7.1685e-03  9.6501e-03  2.6086e-03  4.5541e-01  7.1651e-03  0:01:05 1854
   147  7.3276e-03  9.4394e-03  2.5562e-03  4.2981e-01  7.3238e-03  0:00:52 1853
   148  7.3998e-03  9.2035e-03  2.4914e-03  4.0204e-01  7.3957e-03  0:00:42 1852
   149  7.3874e-03  8.9502e-03  2.4158e-03  3.7196e-01  7.3831e-03  0:00:33 1851
   150  7.2972e-03  8.6869e-03  2.3323e-03  3.4219e-01  7.2927e-03  0:00:27 1850
   151  7.1333e-03  8.4229e-03  2.2438e-03  3.1041e-01  7.1286e-03  0:00:21 1849
   152  6.9004e-03  8.1697e-03  2.1526e-03  2.7818e-01  6.8956e-03  0:06:27 1848
   153  6.6032e-03  7.9353e-03  2.0610e-03  2.4624e-01  6.5984e-03  0:05:09 1847
   154  6.2478e-03  7.7280e-03  1.9708e-03  2.1502e-01  6.2431e-03  0:04:07 1846

  iter  continuity  x-velocity  y-velocity  z-velocity      energy     time/iter
   155  5.8410e-03  7.5553e-03  1.8840e-03  1.8487e-01  5.8365e-03  0:03:18 1845
   156  5.3901e-03  7.4216e-03  1.8026e-03  1.5706e-01  5.3858e-03  0:02:38 1844
   157  4.9025e-03  7.3305e-03  1.7275e-03  1.3130e-01  4.8985e-03  0:02:06 1843
   158  4.3854e-03  7.2775e-03  1.6595e-03  1.1000e-01  4.3817e-03  0:01:41 1842
   159  3.8474e-03  7.2629e-03  1.5985e-03  9.7111e-02  3.8442e-03  0:01:21 1841
   160  3.2956e-03  7.2850e-03  1.5452e-03  9.4679e-02  3.2928e-03  0:01:05 1840
   161  2.7440e-03  7.3405e-03  1.4993e-03  1.0205e-01  2.7417e-03  0:00:52 1839
   162  2.2077e-03  7.4247e-03  1.4621e-03  1.1603e-01  2.2060e-03  0:00:41 1838
   163  1.7091e-03  7.5282e-03  1.4336e-03  1.3338e-01  1.7080e-03  0:00:33 1837
   164  1.2912e-03  7.6408e-03  1.4129e-03  1.5142e-01  1.2908e-03  0:00:26 1836
   165  1.0426e-03  7.7538e-03  1.3991e-03  1.7017e-01  1.0430e-03  0:06:28 1835

  iter  continuity  x-velocity  y-velocity  z-velocity      energy     time/iter
   166  1.0639e-03  7.8627e-03  1.3905e-03  1.8842e-01  1.0645e-03  0:05:10 1834
   167  1.3125e-03  7.9610e-03  1.3857e-03  2.0502e-01  1.3129e-03  0:04:08 1833
   168  1.6687e-03  8.0462e-03  1.3844e-03  2.1953e-01  1.6687e-03  0:03:18 1832
   169  2.0510e-03  8.1130e-03  1.3856e-03  2.3175e-01  2.0506e-03  0:02:39 1831
   170  2.4274e-03  8.1615e-03  1.3887e-03  2.4164e-01  2.4266e-03  0:02:07 1830
   171  2.7805e-03  8.1853e-03  1.3899e-03  2.4942e-01  2.7794e-03  0:01:41 1829
   172  3.1013e-03  8.1855e-03  1.3917e-03  2.5494e-01  3.1000e-03  0:01:21 1828
   173  3.3847e-03  8.1615e-03  1.3933e-03  2.5833e-01  3.3831e-03  0:01:05 1827
   174  3.6268e-03  8.1130e-03  1.3937e-03  2.5937e-01  3.6251e-03  0:00:52 1826
   175  3.8260e-03  8.0412e-03  1.3930e-03  2.5852e-01  3.8240e-03  0:00:41 1825
   176  3.9812e-03  7.9509e-03  1.3900e-03  2.5643e-01  3.9791e-03  0:00:33 1824

  iter  continuity  x-velocity  y-velocity  z-velocity      energy     time/iter
   177  4.0921e-03  7.8446e-03  1.3843e-03  2.5212e-01  4.0899e-03  0:00:26 1823
   178  4.1589e-03  7.7230e-03  1.3753e-03  2.4589e-01  4.1567e-03  0:06:26 1822
   179  4.1813e-03  7.5871e-03  1.3633e-03  2.3711e-01  4.1790e-03  0:05:08 1821
   180  4.1616e-03  7.4441e-03  1.3484e-03  2.2667e-01  4.1593e-03  0:04:07 1820
   181  4.1023e-03  7.2978e-03  1.3307e-03  2.1442e-01  4.1000e-03  0:03:17 1819
   182  4.0056e-03  7.1488e-03  1.3076e-03  2.0097e-01  4.0034e-03  0:02:38 1818
   183  3.8735e-03  6.9968e-03  1.2806e-03  1.8655e-01  3.8714e-03  0:02:06 1817
   184  3.7088e-03  6.8495e-03  1.2500e-03  1.7110e-01  3.7067e-03  0:01:41 1816
   185  3.5153e-03  6.7103e-03  1.2167e-03  1.5513e-01  3.5134e-03  0:01:21 1815
   186  3.2961e-03  6.5816e-03  1.1809e-03  1.3865e-01  3.2943e-03  0:01:04 1814
   187  3.0545e-03  6.4633e-03  1.1434e-03  1.2234e-01  3.0528e-03  0:00:51 1813

  iter  continuity  x-velocity  y-velocity  z-velocity      energy     time/iter
   188  2.7961e-03  6.3574e-03  1.1044e-03  1.0706e-01  2.7945e-03  0:00:41 1812
   189  2.5232e-03  6.2641e-03  1.0657e-03  9.3958e-02  2.5218e-03  0:00:33 1811
   190  2.2397e-03  6.1833e-03  1.0245e-03  8.3567e-02  2.2384e-03  0:00:26 1810
   191  1.9508e-03  6.1158e-03  9.8437e-04  7.7432e-02  1.9495e-03  0:06:23 1809
   192  1.6624e-03  6.0602e-03  9.4794e-04  7.6276e-02  1.6613e-03  0:05:06 1808
   193  1.3849e-03  6.0184e-03  9.1093e-04  7.9450e-02  1.3839e-03  0:04:05 1807
   194  1.1250e-03  5.9839e-03  8.7542e-04  8.6170e-02  1.1242e-03  0:03:16 1806
   195  9.0861e-04  5.9627e-03  8.4500e-04  9.5097e-02  9.0780e-04  0:02:36 1805
   196  7.6825e-04  5.9496e-03  8.1643e-04  1.0467e-01  7.6737e-04  0:02:05 1804
   197  7.3420e-04  5.9469e-03  7.9455e-04  1.1398e-01  7.3325e-04  0:01:40 1803
   198  8.1700e-04  5.9499e-03  7.7784e-04  1.2239e-01  8.1601e-04  0:01:20 1802

  iter  continuity  x-velocity  y-velocity  z-velocity      energy     time/iter
   199  9.7782e-04  5.9538e-03  7.6527e-04  1.2980e-01  9.7676e-04  0:01:04 1801
   200  1.1709e-03  5.9563e-03  7.5433e-04  1.3637e-01  1.1698e-03  0:00:51 1800
   201  1.3720e-03  5.9575e-03  7.4700e-04  1.4161e-01  1.3707e-03  0:00:41 1799
   202  1.5690e-03  5.9557e-03  7.3965e-04  1.4534e-01  1.5675e-03  0:00:33 1798
   203  1.7532e-03  5.9494e-03  7.3720e-04  1.4821e-01  1.7515e-03  0:00:26 1797
   204  1.9244e-03  5.9471e-03  7.3509e-04  1.4942e-01  1.9225e-03  0:00:21 1796
   205  2.0785e-03  5.9418e-03  7.3128e-04  1.4926e-01  2.0764e-03  0:06:16 1795
   206  2.2110e-03  5.9353e-03  7.2569e-04  1.4778e-01  2.2087e-03  0:05:00 1794
   207  2.3207e-03  5.9264e-03  7.1926e-04  1.4551e-01  2.3183e-03  0:04:00 1793
   208  2.4088e-03  5.9132e-03  7.1276e-04  1.4237e-01  2.4063e-03  0:03:12 1792
   209  2.4768e-03  5.8934e-03  7.0007e-04  1.3795e-01  2.4742e-03  0:02:34 1791

  iter  continuity  x-velocity  y-velocity  z-velocity      energy     time/iter
   210  2.5205e-03  5.8663e-03  6.8504e-04  1.3228e-01  2.5177e-03  0:02:03 1790
   211  2.5396e-03  5.8371e-03  6.6861e-04  1.2550e-01  2.5366e-03  0:01:38 1789
   212  2.5366e-03  5.8083e-03  6.5167e-04  1.1779e-01  2.5335e-03  0:01:18 1788
   213  2.5121e-03  5.7811e-03  6.3289e-04  1.0932e-01  2.5089e-03  0:01:03 1787
   214  2.4639e-03  5.7542e-03  6.1501e-04  1.0052e-01  2.4606e-03  0:00:50 1786
   215  2.3974e-03  5.7310e-03  5.9624e-04  9.1686e-02  2.3940e-03  0:00:40 1785
   216  2.3120e-03  5.7071e-03  5.7771e-04  8.2483e-02  2.3085e-03  0:00:32 1784
   217  2.2082e-03  5.6840e-03  5.6266e-04  7.3585e-02  2.2047e-03  0:00:26 1783
   218  2.0899e-03  5.6662e-03  5.5320e-04  6.5464e-02  2.0864e-03  0:00:21 1782
   219  1.9584e-03  5.6549e-03  5.5197e-04  5.7763e-02  1.9549e-03  0:06:13 1781
   220  1.8154e-03  5.6446e-03  5.5682e-04  5.1328e-02  1.8119e-03  0:04:58 1780

  iter  continuity  x-velocity  y-velocity  z-velocity      energy     time/iter
   221  1.6628e-03  5.6368e-03  5.6742e-04  4.6934e-02  1.6594e-03  0:03:58 1779
   222  1.5035e-03  5.6313e-03  5.8254e-04  4.5086e-02  1.5001e-03  0:03:10 1778
   223  1.3403e-03  5.6271e-03  6.0462e-04  4.5801e-02  1.3369e-03  0:02:32 1777
   224  1.1774e-03  5.6259e-03  6.3164e-04  4.8830e-02  1.1740e-03  0:02:02 1776
   225  1.0155e-03  5.6239e-03  6.6500e-04  5.3486e-02  1.0121e-03  0:01:37 1775
   226  8.7226e-04  5.6268e-03  6.9586e-04  5.8986e-02  8.6908e-04  0:01:18 1774
   227  7.4509e-04  5.6291e-03  7.2535e-04  6.4857e-02  7.4213e-04  0:01:02 1773
   228  6.4727e-04  5.6288e-03  7.5357e-04  7.0612e-02  6.4452e-04  0:00:50 1772
   229  5.9737e-04  5.6308e-03  7.8265e-04  7.6006e-02  5.9505e-04  0:00:40 1771
   230  6.0106e-04  5.6315e-03  8.0915e-04  8.0958e-02  5.9940e-04  0:00:32 1770
   231  6.5041e-04  5.6284e-03  8.3260e-04  8.5045e-02  6.4940e-04  0:06:19 1769

  iter  continuity  x-velocity  y-velocity  z-velocity      energy     time/iter
   232  7.2935e-04  5.6210e-03  8.5298e-04  8.8436e-02  7.2886e-04  0:05:03 1768
   233  8.1517e-04  5.6078e-03  8.6716e-04  9.0759e-02  8.1503e-04  0:04:02 1767
   234  9.0774e-04  5.5871e-03  8.7589e-04  9.2213e-02  9.0775e-04  0:03:14 1766
   235  1.0000e-03  5.5571e-03  8.7861e-04  9.2763e-02  1.0000e-03  0:02:35 1765
   236  1.0883e-03  5.5268e-03  8.7787e-04  9.2454e-02  1.0883e-03  0:02:04 1764
   237  1.1651e-03  5.4915e-03  8.7307e-04  9.1049e-02  1.1651e-03  0:01:39 1763
   238  1.2285e-03  5.4507e-03  8.6452e-04  8.9039e-02  1.2285e-03  0:01:19 1762
   239  1.2811e-03  5.4055e-03  8.4941e-04  8.6311e-02  1.2811e-03  0:01:03 1761
   240  1.3161e-03  5.3540e-03  8.2769e-04  8.2665e-02  1.3160e-03  0:00:51 1760
   241  1.3365e-03  5.2996e-03  8.0121e-04  7.8457e-02  1.3363e-03  0:06:32 1759
   242  1.3402e-03  5.2387e-03  7.6924e-04  7.3581e-02  1.3399e-03  0:05:14 1758

  iter  continuity  x-velocity  y-velocity  z-velocity      energy     time/iter
   243  1.3291e-03  5.1775e-03  7.3478e-04  6.8051e-02  1.3287e-03  0:04:11 1757
   244  1.3058e-03  5.1214e-03  6.9931e-04  6.2081e-02  1.3054e-03  0:03:21 1756
   245  1.2696e-03  5.0678e-03  6.5999e-04  5.5836e-02  1.2693e-03  0:02:40 1755
   246  1.2207e-03  5.0148e-03  6.1748e-04  4.9402e-02  1.2202e-03  0:02:08 1754
   247  1.1608e-03  4.9655e-03  5.7507e-04  4.2920e-02  1.1603e-03  0:01:42 1753
   248  1.0889e-03  4.9168e-03  5.3057e-04  3.6605e-02  1.0884e-03  0:01:22 1752
   249  1.0045e-03  4.8713e-03  4.8710e-04  3.0597e-02  1.0040e-03  0:01:06 1751
   250  9.2079e-04  4.8370e-03  4.4653e-04  2.5463e-02  9.2027e-04  0:00:52 1750
   251  8.3511e-04  4.8057e-03  4.0991e-04  2.1723e-02  8.3460e-04  0:00:42 1749
   252  7.4608e-04  4.7754e-03  3.7932e-04  2.0197e-02  7.4563e-04  0:00:33 1748
   253  6.6415e-04  4.7436e-03  3.5821e-04  2.1141e-02  6.6364e-04  0:06:16 1747

  iter  continuity  x-velocity  y-velocity  z-velocity      energy     time/iter
   254  5.9182e-04  4.7167e-03  3.3757e-04  2.4024e-02  5.9126e-04  0:05:01 1746
   255  5.2089e-04  4.6919e-03  3.2460e-04  2.7969e-02  5.2038e-04  0:04:00 1745
   256  4.5728e-04  4.6708e-03  3.2078e-04  3.2279e-02  4.5692e-04  0:03:12 1744
   257  4.1630e-04  4.6579e-03  3.3048e-04  3.6589e-02  4.1615e-04  0:02:34 1743
   258  4.0708e-04  4.6523e-03  3.4062e-04  4.0660e-02  4.0714e-04  0:02:03 1742
   259  4.2137e-04  4.6484e-03  3.5438e-04  4.4350e-02  4.2163e-04  0:01:38 1741
   260  4.4105e-04  4.6460e-03  3.6894e-04  4.7549e-02  4.4146e-04  0:01:19 1740
   261  4.7813e-04  4.6479e-03  3.8872e-04  5.0243e-02  4.7858e-04  0:01:03 1739
   262  5.3177e-04  4.6456e-03  4.0543e-04  5.2342e-02  5.3215e-04  0:00:50 1738
   263  5.8663e-04  4.6428e-03  4.2329e-04  5.3753e-02  5.8698e-04  0:00:40 1737
   264  6.3755e-04  4.6391e-03  4.4155e-04  5.4641e-02  6.3790e-04  0:06:19 1736

  iter  continuity  x-velocity  y-velocity  z-velocity      energy     time/iter
   265  6.8270e-04  4.6314e-03  4.5387e-04  5.5108e-02  6.8294e-04  0:05:03 1735
   266  7.1983e-04  4.6182e-03  4.6251e-04  5.5081e-02  7.1987e-04  0:04:02 1734
   267  7.4895e-04  4.6039e-03  4.7011e-04  5.4573e-02  7.4885e-04  0:03:14 1733
   268  7.6948e-04  4.5845e-03  4.7593e-04  5.3686e-02  7.6937e-04  0:02:35 1732
   269  7.7535e-04  4.5758e-03  4.8093e-04  5.2283e-02  7.7536e-04  0:02:04 1731
   270  7.8123e-04  4.5788e-03  4.8458e-04  5.0413e-02  7.8137e-04  0:01:39 1730
   271  7.7971e-04  4.5766e-03  4.7927e-04  4.8271e-02  7.7993e-04  0:01:19 1729
   272  7.6862e-04  4.5673e-03  4.7224e-04  4.5823e-02  7.6886e-04  0:01:03 1728
   273  7.4850e-04  4.5514e-03  4.6253e-04  4.3022e-02  7.4874e-04  0:00:51 1727
   274  7.1875e-04  4.5325e-03  4.5121e-04  3.9953e-02  7.1901e-04  0:00:40 1726
   275  6.7674e-04  4.5022e-03  4.3346e-04  3.6617e-02  6.7694e-04  0:00:32 1725

  iter  continuity  x-velocity  y-velocity  z-velocity      energy     time/iter
   276  6.3532e-04  4.4790e-03  4.1243e-04  3.3105e-02  6.3537e-04  0:06:11 1724
   277  5.9107e-04  4.4587e-03  3.9273e-04  2.9471e-02  5.9096e-04  0:04:56 1723
   278  5.4527e-04  4.4381e-03  3.7597e-04  2.5849e-02  5.4487e-04  0:03:57 1722
   279  5.0125e-04  4.4256e-03  3.5898e-04  2.2243e-02  5.0078e-04  0:03:09 1721
   280  4.5533e-04  4.4148e-03  3.4094e-04  1.8772e-02  4.5490e-04  0:02:31 1720
   281  4.0863e-04  4.4020e-03  3.2263e-04  1.5606e-02  4.0826e-04  0:02:01 1719
   282  3.6273e-04  4.3855e-03  3.0590e-04  1.2970e-02  3.6241e-04  0:01:37 1718
   283  3.2915e-04  4.3662e-03  2.8874e-04  1.1261e-02  3.2886e-04  0:01:17 1717
   284  3.0670e-04  4.3441e-03  2.7260e-04  1.0822e-02  3.0640e-04  0:01:02 1716
   285  2.9553e-04  4.3186e-03  2.5836e-04  1.1670e-02  2.9519e-04  0:00:49 1715
   286  2.9506e-04  4.2834e-03  2.4530e-04  1.3449e-02  2.9460e-04  0:00:40 1714

  iter  continuity  x-velocity  y-velocity  z-velocity      energy     time/iter
   287  3.0970e-04  4.2520e-03  2.3905e-04  1.5675e-02  3.0919e-04  0:06:14 1713
   288  3.3174e-04  4.2237e-03  2.3831e-04  1.8094e-02  3.3123e-04  0:04:59 1712
   289  3.5973e-04  4.1885e-03  2.3512e-04  2.0480e-02  3.5881e-04  0:03:59 1711
   290  3.9872e-04  4.1619e-03  2.3794e-04  2.2742e-02  3.9779e-04  0:03:11 1710
   291  4.3212e-04  4.1353e-03  2.4085e-04  2.4813e-02  4.3132e-04  0:02:33 1709
   292  4.5902e-04  4.1072e-03  2.5044e-04  2.6681e-02  4.5836e-04  0:02:02 1708
   293  4.8341e-04  4.0788e-03  2.5898e-04  2.8313e-02  4.8287e-04  0:01:38 1707
   294  5.0580e-04  4.0552e-03  2.6844e-04  2.9695e-02  5.0542e-04  0:01:18 1706
   295  5.2288e-04  4.0237e-03  2.7010e-04  3.0833e-02  5.2248e-04  0:01:02 1705
   296  5.3493e-04  3.9921e-03  2.7605e-04  3.1716e-02  5.3453e-04  0:00:50 1704
   297  5.4148e-04  3.9651e-03  2.8243e-04  3.2358e-02  5.4112e-04  0:00:40 1703

  iter  continuity  x-velocity  y-velocity  z-velocity      energy     time/iter
   298  5.4264e-04  3.9407e-03  2.8778e-04  3.2764e-02  5.4233e-04  0:00:32 1702
   299  5.3437e-04  3.9085e-03  2.8694e-04  3.2960e-02  5.3394e-04  0:06:06 1701
   300  5.2928e-04  3.8793e-03  2.9357e-04  3.2958e-02  5.2867e-04  0:04:52 1700
   301  5.2029e-04  3.8576e-03  2.9514e-04  3.2757e-02  5.1972e-04  0:03:54 1699
   302  5.0551e-04  3.8444e-03  3.0121e-04  3.2356e-02  5.0514e-04  0:03:07 1698
   303  4.8855e-04  3.8347e-03  3.0725e-04  3.1760e-02  4.8847e-04  0:02:29 1697
   304  4.7499e-04  3.8281e-03  3.1602e-04  3.0976e-02  4.7515e-04  0:01:59 1696
   305  4.5398e-04  3.8246e-03  3.1269e-04  3.0041e-02  4.5434e-04  0:01:36 1695
   306  4.2548e-04  3.8185e-03  3.0616e-04  2.8950e-02  4.2597e-04  0:01:16 1694
   307  3.9661e-04  3.8091e-03  2.9818e-04  2.7743e-02  3.9714e-04  0:01:01 1693
   308  3.6933e-04  3.7975e-03  2.9080e-04  2.6390e-02  3.6983e-04  0:00:49 1692

  iter  continuity  x-velocity  y-velocity  z-velocity      energy     time/iter
   309  3.3089e-04  3.7722e-03  2.8301e-04  2.4918e-02  3.3118e-04  0:00:39 1691
   310  3.0906e-04  3.7512e-03  2.7967e-04  2.3378e-02  3.0890e-04  0:06:09 1690
   311  3.0308e-04  3.7461e-03  2.7375e-04  2.1804e-02  3.0273e-04  0:04:55 1689
   312  3.0274e-04  3.7489e-03  2.7471e-04  2.0215e-02  3.0237e-04  0:03:56 1688
   313  3.0413e-04  3.7549e-03  2.7669e-04  1.8646e-02  3.0383e-04  0:03:09 1687
   314  3.1319e-04  3.7650e-03  2.7876e-04  1.7086e-02  3.1296e-04  0:02:31 1686
   315  3.2524e-04  3.7769e-03  2.8043e-04  1.5687e-02  3.2505e-04  0:02:01 1685
   316  3.3859e-04  3.7880e-03  2.8065e-04  1.4375e-02  3.3843e-04  0:01:36 1684
   317  3.5350e-04  3.7924e-03  2.8188e-04  1.3176e-02  3.5332e-04  0:01:17 1683
   318  3.6890e-04  3.7959e-03  2.8356e-04  1.2132e-02  3.6871e-04  0:01:02 1682
   319  3.8341e-04  3.7991e-03  2.8620e-04  1.1278e-02  3.8320e-04  0:00:49 1681

  iter  continuity  x-velocity  y-velocity  z-velocity      energy     time/iter
   320  3.9724e-04  3.8026e-03  2.8969e-04  1.0658e-02  3.9702e-04  0:06:15 1680
   321  4.1025e-04  3.8058e-03  2.9547e-04  1.0270e-02  4.1002e-04  0:05:00 1679
   322  4.2130e-04  3.8058e-03  2.9878e-04  1.0072e-02  4.2105e-04  0:04:00 1678
   323  4.2716e-04  3.7934e-03  2.9567e-04  9.9866e-03  4.2669e-04  0:03:12 1677
   324  4.3355e-04  3.7859e-03  2.9838e-04  9.9374e-03  4.3298e-04  0:02:33 1676
   325  4.3682e-04  3.7839e-03  3.0229e-04  9.7851e-03  4.3622e-04  0:02:03 1675
   326  4.3606e-04  3.7844e-03  3.0772e-04  9.6820e-03  4.3546e-04  0:01:38 1674
   327  4.3191e-04  3.7848e-03  3.1021e-04  9.6133e-03  4.3131e-04  0:01:18 1673
   328  4.2408e-04  3.7861e-03  3.1235e-04  9.5534e-03  4.2347e-04  0:01:03 1672
   329  4.1340e-04  3.7875e-03  3.1301e-04  9.4606e-03  4.1276e-04  0:00:50 1671
   330  3.9992e-04  3.7878e-03  3.1210e-04  9.3485e-03  3.9923e-04  0:00:40 1670

  iter  continuity  x-velocity  y-velocity  z-velocity      energy     time/iter
   331  3.8392e-04  3.7869e-03  3.1113e-04  9.2032e-03  3.8320e-04  0:00:32 1669
   332  3.6524e-04  3.7861e-03  3.0999e-04  9.0324e-03  3.6447e-04  0:05:59 1668
   333  3.4564e-04  3.7861e-03  3.0905e-04  8.8591e-03  3.4484e-04  0:04:47 1667
   334  3.2482e-04  3.7859e-03  3.0711e-04  8.6763e-03  3.2397e-04  0:03:50 1666
   335  3.0209e-04  3.7858e-03  3.0464e-04  8.4465e-03  3.0118e-04  0:03:04 1665
   336  2.7724e-04  3.7860e-03  3.0281e-04  8.1993e-03  2.7629e-04  0:02:27 1664
   337  2.5261e-04  3.7869e-03  3.0141e-04  7.9477e-03  2.5163e-04  0:01:57 1663
   338  2.2926e-04  3.7880e-03  2.9917e-04  7.7123e-03  2.2820e-04  0:01:34 1662
   339  2.0869e-04  3.7888e-03  2.9708e-04  7.5089e-03  2.0754e-04  0:01:15 1661
   340  1.9056e-04  3.7887e-03  2.9531e-04  7.3323e-03  1.8932e-04  0:01:00 1660
   341  1.7637e-04  3.7891e-03  2.9482e-04  7.1769e-03  1.7506e-04  0:00:48 1659

  iter  continuity  x-velocity  y-velocity  z-velocity      energy     time/iter
   342  1.6793e-04  3.7901e-03  2.9545e-04  7.0525e-03  1.6660e-04  0:00:38 1658
   343  1.6783e-04  3.7906e-03  2.9640e-04  6.9609e-03  1.6653e-04  0:06:02 1657
   344  1.7516e-04  3.7908e-03  2.9792e-04  6.9583e-03  1.7392e-04  0:04:49 1656
   345  1.8631e-04  3.7909e-03  2.9907e-04  6.9446e-03  1.8512e-04  0:03:51 1655
   346  2.0085e-04  3.7914e-03  3.0177e-04  6.9009e-03  1.9972e-04  0:03:05 1654
   347  2.1723e-04  3.7934e-03  3.0608e-04  6.8447e-03  2.1616e-04  0:02:28 1653
   348  2.3337e-04  3.7966e-03  3.1051e-04  6.7709e-03  2.3234e-04  0:01:58 1652
   349  2.4987e-04  3.8002e-03  3.1503e-04  6.6916e-03  2.4886e-04  0:01:35 1651
   350  2.6568e-04  3.8041e-03  3.2008e-04  6.6109e-03  2.6467e-04  0:01:16 1650
   351  2.8024e-04  3.8081e-03  3.2567e-04  6.5223e-03  2.7921e-04  0:01:00 1649
   352  2.9316e-04  3.8125e-03  3.3194e-04  6.4192e-03  2.9209e-04  0:00:48 1648

  iter  continuity  x-velocity  y-velocity  z-velocity      energy     time/iter
   353  3.0441e-04  3.8173e-03  3.3846e-04  6.2977e-03  3.0326e-04  0:06:08 1647
   354  3.1337e-04  3.8236e-03  3.4557e-04  6.1764e-03  3.1216e-04  0:04:54 1646
   355  3.1990e-04  3.8307e-03  3.5226e-04  6.0343e-03  3.1865e-04  0:03:55 1645
   356  3.2459e-04  3.8375e-03  3.5776e-04  5.8739e-03  3.2327e-04  0:03:08 1644
   357  3.2640e-04  3.8436e-03  3.6387e-04  5.7049e-03  3.2506e-04  0:02:30 1643
   358  3.2665e-04  3.8510e-03  3.6943e-04  5.5504e-03  3.2528e-04  0:02:00 1642
   359  3.2505e-04  3.8584e-03  3.7380e-04  5.4077e-03  3.2359e-04  0:01:36 1641
   360  3.2138e-04  3.8656e-03  3.7743e-04  5.2837e-03  3.1977e-04  0:01:17 1640
   361  3.1613e-04  3.8736e-03  3.8169e-04  5.1906e-03  3.1438e-04  0:01:01 1639
   362  3.0888e-04  3.8806e-03  3.8469e-04  5.1378e-03  3.0696e-04  0:00:49 1638
   363  2.9868e-04  3.8835e-03  3.8659e-04  5.1355e-03  2.9650e-04  0:00:39 1637

  iter  continuity  x-velocity  y-velocity  z-velocity      energy     time/iter
   364  2.9137e-04  3.8865e-03  3.8790e-04  5.3882e-03  2.8895e-04  0:00:31 1636
   365  2.8601e-04  3.8913e-03  3.8974e-04  5.6962e-03  2.8343e-04  0:05:52 1635
   366  2.8294e-04  3.8945e-03  3.8947e-04  5.9231e-03  2.8023e-04  0:04:42 1634
   367  2.8222e-04  3.8980e-03  3.8872e-04  6.1486e-03  2.7938e-04  0:03:45 1633
   368  2.8302e-04  3.9017e-03  3.8832e-04  6.3243e-03  2.8010e-04  0:03:00 1632
   369  2.8650e-04  3.9066e-03  3.8817e-04  6.4866e-03  2.8356e-04  0:02:24 1631
   370  2.9262e-04  3.9117e-03  3.8683e-04  6.6601e-03  2.8967e-04  0:01:55 1630
   371  3.0007e-04  3.9176e-03  3.8577e-04  6.8478e-03  2.9711e-04  0:01:32 1629
   372  3.0874e-04  3.9235e-03  3.8497e-04  7.0312e-03  3.0578e-04  0:01:14 1628
   373  3.1957e-04  3.9279e-03  3.8405e-04  7.2046e-03  3.1662e-04  0:00:59 1627
   374  3.2437e-04  3.9260e-03  3.8309e-04  7.3618e-03  3.2139e-04  0:00:47 1626

  iter  continuity  x-velocity  y-velocity  z-velocity      energy     time/iter
   375  3.3116e-04  3.9218e-03  3.8166e-04  7.5468e-03  3.2819e-04  0:00:38 1625
   376  3.3962e-04  3.9180e-03  3.7925e-04  7.6943e-03  3.3671e-04  0:05:55 1624
   377  3.4499e-04  3.9104e-03  3.7608e-04  7.7791e-03  3.4216e-04  0:04:44 1623
   378  3.4903e-04  3.9020e-03  3.7200e-04  7.8071e-03  3.4628e-04  0:03:47 1622
   379  3.5075e-04  3.8919e-03  3.6835e-04  7.7881e-03  3.4802e-04  0:03:01 1621
   380  3.5453e-04  3.8797e-03  3.6567e-04  7.7247e-03  3.5181e-04  0:02:25 1620
   381  3.5742e-04  3.8664e-03  3.6235e-04  7.6160e-03  3.5472e-04  0:01:56 1619
   382  3.5805e-04  3.8526e-03  3.5986e-04  7.4708e-03  3.5538e-04  0:01:33 1618
   383  3.5731e-04  3.8363e-03  3.5717e-04  7.3032e-03  3.5467e-04  0:01:14 1617
   384  3.5536e-04  3.8211e-03  3.5436e-04  7.1044e-03  3.5273e-04  0:00:59 1616
   385  3.5164e-04  3.8057e-03  3.5261e-04  6.8951e-03  3.4900e-04  0:00:47 1615

  iter  continuity  x-velocity  y-velocity  z-velocity      energy     time/iter
   386  3.4621e-04  3.7920e-03  3.5139e-04  6.6536e-03  3.4358e-04  0:00:38 1614
   387  3.3946e-04  3.7758e-03  3.5076e-04  6.4102e-03  3.3683e-04  0:00:30 1613
   388  3.3207e-04  3.7583e-03  3.5054e-04  6.1736e-03  3.2943e-04  0:05:47 1612
   389  3.2326e-04  3.7409e-03  3.5086e-04  5.9556e-03  3.2060e-04  0:04:37 1611
   390  3.1381e-04  3.7230e-03  3.5151e-04  5.7542e-03  3.1114e-04  0:03:42 1610
   391  3.0494e-04  3.6987e-03  3.5221e-04  5.5870e-03  3.0220e-04  0:02:57 1609
   392  2.9543e-04  3.6781e-03  3.5203e-04  5.4597e-03  2.9265e-04  0:02:22 1608
   393  2.8438e-04  3.6595e-03  3.5176e-04  5.3877e-03  2.8160e-04  0:01:53 1607
   394  2.7317e-04  3.6362e-03  3.5232e-04  5.3740e-03  2.7040e-04  0:01:31 1606
   395  2.6300e-04  3.6133e-03  3.5221e-04  5.4480e-03  2.6025e-04  0:01:12 1605
   396  2.5621e-04  3.5909e-03  3.5296e-04  5.5538e-03  2.5348e-04  0:00:58 1604

  iter  continuity  x-velocity  y-velocity  z-velocity      energy     time/iter
   397  2.4985e-04  3.5674e-03  3.5417e-04  5.6909e-03  2.4713e-04  0:00:46 1603
   398  2.4120e-04  3.5433e-03  3.5550e-04  5.8588e-03  2.3847e-04  0:00:37 1602
   399  2.3299e-04  3.5195e-03  3.5716e-04  6.0552e-03  2.3025e-04  0:00:30 1601
   400  2.2665e-04  3.4956e-03  3.5897e-04  6.2717e-03  2.2393e-04  0:05:44 1600
   401  2.2282e-04  3.4716e-03  3.6060e-04  6.4990e-03  2.2012e-04  0:04:35 1599
   402  2.2161e-04  3.4476e-03  3.6272e-04  6.7301e-03  2.1895e-04  0:03:40 1598
   403  2.2127e-04  3.4236e-03  3.6486e-04  6.9566e-03  2.1865e-04  0:02:56 1597
   404  2.2119e-04  3.3989e-03  3.6758e-04  7.1701e-03  2.1863e-04  0:02:20 1596
   405  2.2183e-04  3.3744e-03  3.7069e-04  7.3639e-03  2.1931e-04  0:01:52 1595
   406  2.2358e-04  3.3506e-03  3.7314e-04  7.5336e-03  2.2112e-04  0:01:30 1594
   407  2.2543e-04  3.3268e-03  3.7658e-04  7.6761e-03  2.2304e-04  0:01:12 1593

  iter  continuity  x-velocity  y-velocity  z-velocity      energy     time/iter
   408  2.2766e-04  3.3017e-03  3.8044e-04  7.7808e-03  2.2531e-04  0:00:57 1592
   409  2.3107e-04  3.2774e-03  3.8417e-04  7.8280e-03  2.2876e-04  0:00:46 1591
   410  2.3519e-04  3.2540e-03  3.8783e-04  7.8174e-03  2.3292e-04  0:00:37 1590
   411  2.4033e-04  3.2289e-03  3.9176e-04  7.7556e-03  2.3807e-04  0:00:29 1589
   412  2.4515e-04  3.2045e-03  3.9581e-04  7.6515e-03  2.4289e-04  0:05:41 1588
   413  2.4941e-04  3.1809e-03  3.9994e-04  7.5017e-03  2.4714e-04  0:04:33 1587
   414  2.5310e-04  3.1581e-03  4.0386e-04  7.3071e-03  2.5081e-04  0:03:38 1586
   415  2.5698e-04  3.1360e-03  4.0751e-04  7.0737e-03  2.5465e-04  0:02:54 1585
   416  2.6043e-04  3.1081e-03  4.1151e-04  6.8044e-03  2.5804e-04  0:02:19 1584
   417  2.6438e-04  3.0745e-03  4.1561e-04  6.5068e-03  2.6192e-04  0:01:51 1583
   418  2.6915e-04  3.0440e-03  4.1888e-04  6.1900e-03  2.6664e-04  0:01:29 1582

  iter  continuity  x-velocity  y-velocity  z-velocity      energy     time/iter
   419  2.7442e-04  3.0143e-03  4.2145e-04  5.8622e-03  2.7186e-04  0:01:11 1581
   420  2.8020e-04  2.9874e-03  4.2366e-04  5.5298e-03  2.7758e-04  0:00:57 1580
   421  2.8666e-04  2.9625e-03  4.2580e-04  5.2092e-03  2.8398e-04  0:00:46 1579
   422  2.9411e-04  2.9377e-03  4.2809e-04  4.9111e-03  2.9138e-04  0:00:36 1578
   423  3.0124e-04  2.9140e-03  4.3014e-04  4.6431e-03  2.9846e-04  0:00:29 1577
   424  3.0805e-04  2.8940e-03  4.3173e-04  4.4091e-03  3.0521e-04  0:05:38 1576
   425  3.1413e-04  2.8766e-03  4.3295e-04  4.2201e-03  3.1123e-04  0:04:31 1575
   426  3.2022e-04  2.8613e-03  4.3358e-04  4.0877e-03  3.1726e-04  0:03:36 1574
   427  3.2646e-04  2.8476e-03  4.3401e-04  4.0156e-03  3.2345e-04  0:02:53 1573
   428  3.3159e-04  2.8274e-03  4.3433e-04  4.0136e-03  3.2852e-04  0:02:18 1572
   429  3.3779e-04  2.8046e-03  4.3447e-04  4.0677e-03  3.3469e-04  0:01:51 1571

  iter  continuity  x-velocity  y-velocity  z-velocity      energy     time/iter
   430  3.4417e-04  2.7821e-03  4.3464e-04  4.1682e-03  3.4104e-04  0:01:28 1570
   431  3.5151e-04  2.7596e-03  4.3510e-04  4.3054e-03  3.4834e-04  0:01:11 1569
   432  3.5900e-04  2.7383e-03  4.3530e-04  4.4619e-03  3.5581e-04  0:00:56 1568
   433  3.6554e-04  2.7160e-03  4.3513e-04  4.6413e-03  3.6233e-04  0:00:45 1567
   434  3.7133e-04  2.6920e-03  4.3502e-04  4.8325e-03  3.6809e-04  0:00:36 1566
   435  3.7650e-04  2.6661e-03  4.3504e-04  5.0267e-03  3.7323e-04  0:05:42 1565
   436  3.8111e-04  2.6389e-03  4.3511e-04  5.2162e-03  3.7783e-04  0:04:33 1564
   437  3.8524e-04  2.6112e-03  4.3532e-04  5.4180e-03  3.8194e-04  0:03:39 1563
   438  3.8880e-04  2.5831e-03  4.3562e-04  5.6032e-03  3.8548e-04  0:02:55 1562
   439  3.9172e-04  2.5551e-03  4.3597e-04  5.7643e-03  3.8840e-04  0:02:20 1561
   440  3.9361e-04  2.5257e-03  4.3637e-04  5.9072e-03  3.9028e-04  0:01:52 1560

  iter  continuity  x-velocity  y-velocity  z-velocity      energy     time/iter
   441  3.9407e-04  2.4927e-03  4.3672e-04  6.0418e-03  3.9073e-04  0:01:29 1559
   442  3.9396e-04  2.4599e-03  4.3682e-04  6.1301e-03  3.9060e-04  0:01:11 1558
   443  3.9306e-04  2.4267e-03  4.3698e-04  6.1787e-03  3.8968e-04  0:00:57 1557
   444  3.9135e-04  2.3935e-03  4.3711e-04  6.1781e-03  3.8797e-04  0:00:46 1556
   445  3.8888e-04  2.3606e-03  4.3732e-04  6.1474e-03  3.8549e-04  0:00:36 1555
   446  3.8565e-04  2.3284e-03  4.3765e-04  6.0932e-03  3.8224e-04  0:00:29 1554
   447  3.8172e-04  2.2968e-03  4.3810e-04  6.0196e-03  3.7831e-04  0:05:34 1553
   448  3.7718e-04  2.2637e-03  4.3865e-04  5.9293e-03  3.7376e-04  0:04:27 1552
   449  3.7213e-04  2.2312e-03  4.3922e-04  5.8240e-03  3.6869e-04  0:03:33 1551
   450  3.6656e-04  2.2000e-03  4.3987e-04  5.7069e-03  3.6311e-04  0:02:51 1550
   451  3.6058e-04  2.1696e-03  4.4060e-04  5.5842e-03  3.5713e-04  0:02:16 1549

  iter  continuity  x-velocity  y-velocity  z-velocity      energy     time/iter
   452  3.5437e-04  2.1394e-03  4.4159e-04  5.4493e-03  3.5090e-04  0:01:49 1548
   453  3.4795e-04  2.1097e-03  4.4257e-04  5.3223e-03  3.4448e-04  0:01:27 1547
   454  3.4141e-04  2.0801e-03  4.4345e-04  5.2048e-03  3.3794e-04  0:01:10 1546
   455  3.3518e-04  2.0527e-03  4.4424e-04  5.0980e-03  3.3170e-04  0:00:56 1545
   456  3.2903e-04  2.0252e-03  4.4506e-04  5.0070e-03  3.2555e-04  0:00:45 1544
   457  3.2303e-04  1.9974e-03  4.4578e-04  4.9322e-03  3.1956e-04  0:00:36 1543
   458  3.1733e-04  1.9697e-03  4.4643e-04  4.8720e-03  3.1386e-04  0:00:28 1542
   459  3.1206e-04  1.9426e-03  4.4699e-04  4.8241e-03  3.0860e-04  0:05:31 1541
   460  3.0739e-04  1.9162e-03  4.4746e-04  4.8543e-03  3.0395e-04  0:04:25 1540
   461  3.0340e-04  1.8898e-03  4.4778e-04  4.9011e-03  2.9998e-04  0:03:32 1539
   462  2.9960e-04  1.8627e-03  4.4800e-04  4.9529e-03  2.9620e-04  0:02:49 1538

  iter  continuity  x-velocity  y-velocity  z-velocity      energy     time/iter
   463  2.9638e-04  1.8365e-03  4.4806e-04  5.0066e-03  2.9300e-04  0:02:15 1537
   464  2.9366e-04  1.8110e-03  4.4799e-04  5.0936e-03  2.9031e-04  0:01:48 1536
   465  2.9142e-04  1.7855e-03  4.4786e-04  5.1746e-03  2.8811e-04  0:01:26 1535
   466  2.8966e-04  1.7595e-03  4.4767e-04  5.2675e-03  2.8637e-04  0:01:09 1534
   467  2.8823e-04  1.7328e-03  4.4733e-04  5.3443e-03  2.8497e-04  0:06:02 1533
   468  2.8699e-04  1.7056e-03  4.4687e-04  5.4129e-03  2.8375e-04  0:04:49 1532
   469  2.8597e-04  1.6779e-03  4.4629e-04  5.4851e-03  2.8275e-04  0:03:51 1531
   470  2.8512e-04  1.6498e-03  4.4559e-04  5.5618e-03  2.8191e-04  0:03:05 1530
   471  2.8457e-04  1.6214e-03  4.4472e-04  5.6731e-03  2.8137e-04  0:02:28 1529
   472  2.8436e-04  1.5926e-03  4.4366e-04  5.7981e-03  2.8118e-04  0:01:58 1528
   473  2.8432e-04  1.5636e-03  4.4241e-04  5.9311e-03  2.8113e-04  0:01:34 1527

  iter  continuity  x-velocity  y-velocity  z-velocity      energy     time/iter
   474  2.8446e-04  1.5348e-03  4.4103e-04  6.0715e-03  2.8128e-04  0:01:16 1526
   475  2.8472e-04  1.5059e-03  4.3955e-04  6.2221e-03  2.8154e-04  0:01:00 1525
   476  2.8512e-04  1.4769e-03  4.3796e-04  6.3847e-03  2.8194e-04  0:00:48 1524
   477  2.8611e-04  1.4480e-03  4.3632e-04  6.5615e-03  2.8292e-04  0:00:39 1523
   478  2.8704e-04  1.4197e-03  4.3459e-04  6.7559e-03  2.8386e-04  0:05:35 1522
   479  2.8796e-04  1.3921e-03  4.3277e-04  6.9668e-03  2.8476e-04  0:04:28 1521
   480  2.8895e-04  1.3652e-03  4.3085e-04  7.1973e-03  2.8575e-04  0:03:34 1520
   481  2.8986e-04  1.3373e-03  4.2886e-04  7.4505e-03  2.8665e-04  0:02:51 1519
   482  2.9061e-04  1.3072e-03  4.2677e-04  7.7179e-03  2.8739e-04  0:02:17 1518
   483  2.9161e-04  1.2782e-03  4.2448e-04  8.0009e-03  2.8838e-04  0:01:49 1517
   484  2.9275e-04  1.2501e-03  4.2211e-04  8.2993e-03  2.8951e-04  0:01:28 1516

  iter  continuity  x-velocity  y-velocity  z-velocity      energy     time/iter
   485  2.9394e-04  1.2227e-03  4.1972e-04  8.6041e-03  2.9069e-04  0:01:10 1515
   486  2.9513e-04  1.1959e-03  4.1732e-04  8.9364e-03  2.9188e-04  0:00:56 1514
   487  2.9629e-04  1.1698e-03  4.1490e-04  9.2604e-03  2.9304e-04  0:00:45 1513
   488  2.9739e-04  1.1443e-03  4.1248e-04  9.5884e-03  2.9414e-04  0:00:36 1512
   489  2.9838e-04  1.1195e-03  4.1006e-04  9.9335e-03  2.9513e-04  0:05:31 1511
   490  2.9924e-04  1.0953e-03  4.0763e-04  1.0282e-02  2.9600e-04  0:04:24 1510
   491  2.9994e-04  1.0718e-03  4.0520e-04  1.0632e-02  2.9670e-04  0:03:31 1509
   492  3.0045e-04  1.0491e-03  4.0277e-04  1.0990e-02  2.9722e-04  0:02:49 1508
   493  3.0076e-04  1.0272e-03  4.0035e-04  1.1351e-02  2.9754e-04  0:02:15 1507
   494  3.0081e-04  1.0062e-03  3.9793e-04  1.1711e-02  2.9760e-04  0:01:48 1506
   495  3.0057e-04  9.8580e-04  3.9552e-04  1.2068e-02  2.9737e-04  0:01:26 1505

  iter  continuity  x-velocity  y-velocity  z-velocity      energy     time/iter
   496  3.0003e-04  9.6614e-04  3.9312e-04  1.2423e-02  2.9685e-04  0:01:09 1504
   497  2.9915e-04  9.4743e-04  3.9072e-04  1.2777e-02  2.9598e-04  0:00:55 1503
   498  2.9792e-04  9.2956e-04  3.8834e-04  1.3128e-02  2.9477e-04  0:00:44 1502
   499  2.9632e-04  9.1236e-04  3.8595e-04  1.3475e-02  2.9318e-04  0:00:35 1501
   500  2.9434e-04  8.9561e-04  3.8358e-04  1.3817e-02  2.9122e-04  0:00:28 1500
   501  2.9196e-04  8.7882e-04  3.8120e-04  1.4148e-02  2.8886e-04  0:05:22 1499
   502  2.8921e-04  8.6246e-04  3.7880e-04  1.4469e-02  2.8612e-04  0:04:18 1498
   503  2.8610e-04  8.4641e-04  3.7639e-04  1.4777e-02  2.8303e-04  0:03:26 1497
   504  2.8265e-04  8.3064e-04  3.7396e-04  1.5075e-02  2.7961e-04  0:02:45 1496
   505  2.7888e-04  8.1502e-04  3.7150e-04  1.5365e-02  2.7585e-04  0:02:12 1495
   506  2.7484e-04  7.9975e-04  3.6902e-04  1.5644e-02  2.7183e-04  0:01:45 1494

  iter  continuity  x-velocity  y-velocity  z-velocity      energy     time/iter
   507  2.7040e-04  7.8384e-04  3.6651e-04  1.5903e-02  2.6742e-04  0:01:24 1493
   508  2.6583e-04  7.6820e-04  3.6399e-04  2.1747e-02  2.6286e-04  0:01:07 1492
   509  2.6120e-04  7.5342e-04  3.6147e-04  3.0423e-02  2.5825e-04  0:00:54 1491
   510  2.5649e-04  7.3951e-04  3.5892e-04  3.5619e-02  2.5356e-04  0:05:41 1490
   511  2.5172e-04  7.2642e-04  3.5635e-04  3.8080e-02  2.4882e-04  0:04:33 1489
   512  2.4693e-04  7.1415e-04  3.5375e-04  3.9190e-02  2.4405e-04  0:03:38 1488
   513  2.4220e-04  7.0293e-04  3.5113e-04  3.9791e-02  2.3934e-04  0:02:54 1487
   514  2.3752e-04  6.9229e-04  3.4849e-04  3.9009e-02  2.3468e-04  0:02:19 1486
   515  2.3289e-04  6.8188e-04  3.4583e-04  3.7776e-02  2.3008e-04  0:01:51 1485
   516  2.2841e-04  6.7210e-04  3.4314e-04  3.7195e-02  2.2562e-04  0:01:29 1484
   517  2.2403e-04  6.6235e-04  3.4041e-04  3.6071e-02  2.2127e-04  0:01:11 1483

  iter  continuity  x-velocity  y-velocity  z-velocity      energy     time/iter
   518  2.1983e-04  6.5285e-04  3.3764e-04  3.5420e-02  2.1709e-04  0:00:57 1482
   519  2.1588e-04  6.4409e-04  3.3484e-04  3.5569e-02  2.1316e-04  0:05:42 1481
   520  2.1216e-04  6.3580e-04  3.3204e-04  3.3696e-02  2.0947e-04  0:04:33 1480
   521  2.0869e-04  6.2767e-04  3.2921e-04  3.2636e-02  2.0602e-04  0:03:38 1479
   522  2.0553e-04  6.1984e-04  3.2636e-04  5.3984e-02  2.0289e-04  0:02:55 1478
   523  2.0257e-04  6.1223e-04  3.2352e-04  6.8871e-02  1.9996e-04  0:02:20 1477
   524  1.9981e-04  6.0463e-04  3.2068e-04  7.1388e-02  1.9723e-04  0:01:52 1476
   525  1.9726e-04  5.9713e-04  3.1785e-04  6.5718e-02  1.9471e-04  0:01:29 1475
   526  1.9494e-04  5.8982e-04  3.1499e-04  6.0015e-02  1.9241e-04  0:01:11 1474
   527  1.9283e-04  5.8282e-04  3.1212e-04  5.7847e-02  1.9033e-04  0:00:57 1473
   528  1.9094e-04  5.7621e-04  3.0925e-04  5.9887e-02  1.8846e-04  0:05:40 1472

  iter  continuity  x-velocity  y-velocity  z-velocity      energy     time/iter
   529  1.8925e-04  5.6995e-04  3.0638e-04  6.6593e-02  1.8680e-04  0:04:32 1471
   530  1.8774e-04  5.6415e-04  3.0351e-04  7.5876e-02  1.8531e-04  0:03:37 1470
   531  1.8641e-04  5.5883e-04  3.0065e-04  8.6497e-02  1.8400e-04  0:02:54 1469
   532  1.8523e-04  5.5382e-04  2.9780e-04  9.8260e-02  1.8285e-04  0:02:19 1468
   533  1.8409e-04  5.4808e-04  2.9497e-04  1.0834e-01  1.8173e-04  0:01:51 1467
   534  1.8313e-04  5.4360e-04  2.9206e-04  1.0581e-01  1.8078e-04  0:01:29 1466
   535  1.8230e-04  5.4003e-04  2.8921e-04  8.7347e-02  1.7997e-04  0:01:11 1465
   536  1.8157e-04  5.3702e-04  2.8642e-04  7.9942e-02  1.7926e-04  0:00:57 1464
   537  1.8094e-04  5.3460e-04  2.8368e-04  7.9803e-02  1.7864e-04  0:05:38 1463
   538  1.7989e-04  5.2560e-04  2.8096e-04  8.2662e-02  1.7761e-04  0:04:30 1462
   539  1.7923e-04  5.1871e-04  2.7827e-04  1.2024e-01  1.7696e-04  0:03:36 1461

  iter  continuity  x-velocity  y-velocity  z-velocity      energy     time/iter
   540  1.7878e-04  5.1413e-04  2.7562e-04  1.4538e-01  1.7653e-04  0:02:53 1460
   541  1.7839e-04  5.1053e-04  2.7302e-04  1.5540e-01  1.7616e-04  0:02:18 1459
   542  1.7802e-04  5.0751e-04  2.7043e-04  1.5726e-01  1.7580e-04  0:01:50 1458
   543  1.7765e-04  5.0485e-04  2.6785e-04  1.5145e-01  1.7545e-04  0:01:28 1457
   544  1.7717e-04  5.0116e-04  2.6528e-04  1.4046e-01  1.7499e-04  0:01:11 1456
   545  1.7649e-04  4.9407e-04  2.6269e-04  1.2933e-01  1.7432e-04  0:00:56 1455
   546  1.7593e-04  4.8700e-04  2.6003e-04  1.0706e-01  1.7378e-04  0:00:45 1454
   547  1.7535e-04  4.8048e-04  2.5737e-04  1.0829e-01  1.7322e-04  0:05:27 1453
   548  1.7469e-04  4.7395e-04  2.5476e-04  1.1984e-01  1.7257e-04  0:04:21 1452
   549  1.7396e-04  4.6773e-04  2.5218e-04  1.4786e-01  1.7186e-04  0:03:29 1451
   550  1.7316e-04  4.6182e-04  2.4965e-04  1.5702e-01  1.7107e-04  0:02:47 1450

  iter  continuity  x-velocity  y-velocity  z-velocity      energy     time/iter
   551  1.7225e-04  4.5619e-04  2.4716e-04  1.4363e-01  1.7018e-04  0:02:13 1449
   552  1.7123e-04  4.5095e-04  2.4470e-04  1.2631e-01  1.6918e-04  0:01:47 1448
   553  1.7009e-04  4.4619e-04  2.4225e-04  1.1254e-01  1.6806e-04  0:01:25 1447
   554  1.6882e-04  4.4193e-04  2.3983e-04  1.0394e-01  1.6681e-04  0:01:08 1446
   555  1.6742e-04  4.3817e-04  2.3742e-04  9.7907e-02  1.6543e-04  0:00:54 1445
   556  1.6588e-04  4.3491e-04  2.3503e-04  9.1509e-02  1.6391e-04  0:05:32 1444
   557  1.6420e-04  4.3211e-04  2.3266e-04  8.5924e-02  1.6225e-04  0:04:26 1443
   558  1.6238e-04  4.2969e-04  2.3031e-04  8.1634e-02  1.6045e-04  0:03:32 1442
   559  1.6042e-04  4.2768e-04  2.2797e-04  7.8523e-02  1.5851e-04  0:02:50 1441
   560  1.5832e-04  4.2607e-04  2.2566e-04  7.7048e-02  1.5643e-04  0:02:16 1440
   561  1.5610e-04  4.2475e-04  2.2336e-04  8.1054e-02  1.5423e-04  0:01:49 1439

  iter  continuity  x-velocity  y-velocity  z-velocity      energy     time/iter
   562  1.5376e-04  4.2364e-04  2.2107e-04  8.9788e-02  1.5191e-04  0:01:27 1438
   563  1.5131e-04  4.2267e-04  2.1879e-04  9.8637e-02  1.4948e-04  0:01:09 1437
   564  1.4877e-04  4.2173e-04  2.1651e-04  1.0732e-01  1.4697e-04  0:00:55 1436
   565  1.4615e-04  4.2076e-04  2.1423e-04  1.1297e-01  1.4436e-04  0:00:44 1435
   566  1.4342e-04  4.1914e-04  2.1196e-04  1.2003e-01  1.4165e-04  0:05:22 1434
   567  1.4065e-04  4.1600e-04  2.0966e-04  1.1438e-01  1.3890e-04  0:04:18 1433
   568  1.3801e-04  4.1454e-04  2.0736e-04  2.1774e-01  1.3629e-04  0:03:26 1432
   569  1.3531e-04  4.1310e-04  2.0508e-04  2.4834e-01  1.3360e-04  0:02:45 1431
   570  1.3256e-04  4.1155e-04  2.0281e-04  2.2804e-01  1.3087e-04  0:02:12 1430
   571  1.2981e-04  4.0981e-04  2.0055e-04  2.0744e-01  1.2815e-04  0:01:45 1429
   572  1.2710e-04  4.0795e-04  1.9827e-04  1.9466e-01  1.2546e-04  0:01:24 1428

  iter  continuity  x-velocity  y-velocity  z-velocity      energy     time/iter
   573  1.2447e-04  4.0630e-04  1.9600e-04  1.8264e-01  1.2284e-04  0:01:07 1427
   574  1.2191e-04  4.0475e-04  1.9372e-04  1.7027e-01  1.2030e-04  0:00:54 1426
   575  1.1943e-04  4.0326e-04  1.9144e-04  1.5839e-01  1.1784e-04  0:00:43 1425
   576  1.1705e-04  4.0179e-04  1.8917e-04  1.4778e-01  1.1548e-04  0:05:19 1424
   577  1.1476e-04  4.0031e-04  1.8690e-04  1.3770e-01  1.1322e-04  0:04:15 1423
   578  1.1258e-04  3.9881e-04  1.8462e-04  1.2790e-01  1.1106e-04  0:03:24 1422
   579  1.1051e-04  3.9727e-04  1.8236e-04  1.1915e-01  1.0901e-04  0:02:43 1421
   580  1.0855e-04  3.9571e-04  1.8009e-04  1.1206e-01  1.0706e-04  0:02:10 1420
   581  1.0670e-04  3.9413e-04  1.7784e-04  1.0703e-01  1.0523e-04  0:01:44 1419
   582  1.0495e-04  3.9254e-04  1.7560e-04  1.0372e-01  1.0351e-04  0:01:23 1418
   583  1.0332e-04  3.9097e-04  1.7338e-04  1.0154e-01  1.0189e-04  0:01:07 1417

  iter  continuity  x-velocity  y-velocity  z-velocity      energy     time/iter
   584  1.0179e-04  3.8942e-04  1.7117e-04  1.0024e-01  1.0039e-04  0:00:53 1416
   585  1.0037e-04  3.8790e-04  1.6898e-04  9.9420e-02  9.8985e-05  0:00:43 1415
   586  9.9042e-05  3.8642e-04  1.6681e-04  9.8665e-02  9.7674e-05  0:05:17 1414
   587  9.7784e-05  3.8464e-04  1.6467e-04  9.8021e-02  9.6433e-05  0:04:13 1413
   588  9.6607e-05  3.8269e-04  1.6254e-04  9.7527e-02  9.5273e-05  0:03:22 1412
   589  9.5511e-05  3.8063e-04  1.6043e-04  9.6788e-02  9.4194e-05  0:02:42 1411
   590  9.4490e-05  3.7844e-04  1.5834e-04  9.5908e-02  9.3189e-05  0:02:09 1410
   591  9.3540e-05  3.7612e-04  1.5628e-04  9.4788e-02  9.2254e-05  0:01:43 1409
   592  9.2649e-05  3.7366e-04  1.5425e-04  9.3282e-02  9.1378e-05  0:01:23 1408
   593  9.1775e-05  3.7087e-04  1.5224e-04  9.1502e-02  9.0518e-05  0:01:06 1407
   594  9.0975e-05  3.6809e-04  1.5025e-04  8.9406e-02  8.9731e-05  0:00:53 1406

  iter  continuity  x-velocity  y-velocity  z-velocity      energy     time/iter
   595  9.0229e-05  3.6531e-04  1.4828e-04  8.7126e-02  8.8999e-05  0:00:42 1405
   596  8.9533e-05  3.6256e-04  1.4636e-04  8.4837e-02  8.8315e-05  0:00:34 1404
   597  8.8874e-05  3.5990e-04  1.4446e-04  8.2783e-02  8.7669e-05  0:05:08 1403
   598  8.8253e-05  3.5731e-04  1.4260e-04  8.1020e-02  8.7061e-05  0:04:06 1402
   599  8.7662e-05  3.5478e-04  1.4077e-04  7.8816e-02  8.6482e-05  0:03:17 1401
   600  8.7094e-05  3.5233e-04  1.3897e-04  7.6322e-02  8.5926e-05  0:02:37 1400
   601  8.6542e-05  3.4996e-04  1.3721e-04  7.4108e-02  8.5386e-05  0:02:06 1399
   602  8.5999e-05  3.4767e-04  1.3547e-04  7.2306e-02  8.4855e-05  0:01:40 1398
   603  8.5460e-05  3.4546e-04  1.3377e-04  7.0571e-02  8.4328e-05  0:01:20 1397
   604  8.4918e-05  3.4334e-04  1.3210e-04  6.8418e-02  8.3798e-05  0:01:04 1396
   605  8.4365e-05  3.4131e-04  1.3045e-04  6.6208e-02  8.3257e-05  0:05:30 1395

  iter  continuity  x-velocity  y-velocity  z-velocity      energy     time/iter
   606  8.3794e-05  3.3938e-04  1.2883e-04  6.4256e-02  8.2699e-05  0:04:24 1394
   607  8.3200e-05  3.3755e-04  1.2724e-04  6.2734e-02  8.2117e-05  0:03:31 1393
   608  8.2576e-05  3.3581e-04  1.2567e-04  6.0660e-02  8.1505e-05  0:02:49 1392
   609  8.1915e-05  3.3418e-04  1.2413e-04  5.8292e-02  8.0857e-05  0:02:15 1391
   610  8.1212e-05  3.3260e-04  1.2260e-04  5.6076e-02  8.0167e-05  0:01:48 1390
   611  8.0463e-05  3.3114e-04  1.2110e-04  5.4010e-02  7.9431e-05  0:01:26 1389
   612  7.9664e-05  3.2979e-04  1.1961e-04  5.2156e-02  7.8644e-05  0:05:47 1388
   613  7.8810e-05  3.2854e-04  1.1814e-04  5.0497e-02  7.7803e-05  0:04:37 1387
   614  7.7899e-05  3.2740e-04  1.1668e-04  4.9054e-02  7.6906e-05  0:03:41 1386
   615  7.6930e-05  3.2635e-04  1.1524e-04  4.7719e-02  7.5949e-05  0:02:57 1385
   616  7.5901e-05  3.2539e-04  1.1381e-04  4.6412e-02  7.4934e-05  0:02:22 1384

  iter  continuity  x-velocity  y-velocity  z-velocity      energy     time/iter
   617  7.4813e-05  3.2452e-04  1.1238e-04  4.5081e-02  7.3859e-05  0:01:53 1383
   618  7.3667e-05  3.2373e-04  1.1097e-04  4.3857e-02  7.2726e-05  0:01:30 1382
   619  7.2465e-05  3.2301e-04  1.0956e-04  4.2743e-02  7.1537e-05  0:05:49 1381
   620  7.1210e-05  3.2235e-04  1.0815e-04  4.1664e-02  7.0295e-05  0:04:39 1380
   621  6.9907e-05  3.2175e-04  1.0675e-04  4.0717e-02  6.9004e-05  0:03:43 1379
   622  6.8558e-05  3.2121e-04  1.0535e-04  3.9932e-02  6.7669e-05  0:02:58 1378
   623  6.7171e-05  3.2071e-04  1.0395e-04  3.9314e-02  6.6295e-05  0:02:22 1377
   624  6.5751e-05  3.2026e-04  1.0255e-04  3.8783e-02  6.4887e-05  0:01:54 1376
   625  6.4304e-05  3.1984e-04  1.0115e-04  3.8285e-02  6.3453e-05  0:01:31 1375
   626  6.2838e-05  3.1945e-04  9.9747e-05  3.7791e-02  6.2001e-05  0:05:48 1374
   627  6.1362e-05  3.1909e-04  9.8341e-05  3.7050e-02  6.0537e-05  0:04:38 1373

  iter  continuity  x-velocity  y-velocity  z-velocity      energy     time/iter
   628  5.9882e-05  3.1875e-04  9.6932e-05  3.6058e-02  5.9070e-05  0:03:42 1372
   629  5.8408e-05  3.1843e-04  9.5520e-05  3.4924e-02  5.7608e-05  0:02:58 1371
   630  5.6946e-05  3.1813e-04  9.4105e-05  3.4006e-02  5.6159e-05  0:02:22 1370
   631  5.5502e-05  3.1781e-04  9.2687e-05  3.3574e-02  5.4727e-05  0:01:53 1369
   632  5.4066e-05  3.1733e-04  9.1266e-05  3.3280e-02  5.3304e-05  0:01:31 1368
   633  5.2683e-05  3.1692e-04  8.9842e-05  3.3090e-02  5.1934e-05  0:05:46 1367
   634  5.1348e-05  3.1654e-04  8.8420e-05  3.2969e-02  5.0611e-05  0:04:37 1366
   635  5.0063e-05  3.1617e-04  8.6998e-05  3.2920e-02  4.9339e-05  0:03:41 1365
   636  4.8834e-05  3.1581e-04  8.5579e-05  3.2922e-02  4.8121e-05  0:02:57 1364
   637  4.7663e-05  3.1545e-04  8.4164e-05  3.2958e-02  4.6963e-05  0:02:21 1363
   638  4.6555e-05  3.1508e-04  8.2755e-05  3.3029e-02  4.5867e-05  0:01:53 1362

  iter  continuity  x-velocity  y-velocity  z-velocity      energy     time/iter
   639  4.5512e-05  3.1471e-04  8.1353e-05  3.3094e-02  4.4836e-05  0:01:30 1361
   640  4.4533e-05  3.1431e-04  7.9954e-05  3.3118e-02  4.3869e-05  0:05:44 1360
   641  4.3627e-05  3.1389e-04  7.8570e-05  3.3135e-02  4.2974e-05  0:04:35 1359
   642  4.2780e-05  3.1344e-04  7.7200e-05  3.3135e-02  4.2138e-05  0:03:40 1358
   643  4.2000e-05  3.1296e-04  7.5847e-05  3.3142e-02  4.1369e-05  0:02:56 1357
   644  4.1284e-05  3.1246e-04  7.4513e-05  3.3211e-02  4.0664e-05  0:02:21 1356
   645  4.0632e-05  3.1195e-04  7.3201e-05  3.3334e-02  4.0021e-05  0:01:52 1355
   646  4.0039e-05  3.1140e-04  7.1912e-05  3.3494e-02  3.9439e-05  0:01:30 1354
   647  3.9505e-05  3.1084e-04  7.0649e-05  3.3692e-02  3.8914e-05  0:05:42 1353
   648  3.9025e-05  3.1024e-04  6.9413e-05  3.3931e-02  3.8443e-05  0:04:34 1352
   649  3.8598e-05  3.0963e-04  6.8206e-05  3.4216e-02  3.8025e-05  0:03:39 1351

  iter  continuity  x-velocity  y-velocity  z-velocity      energy     time/iter
   650  3.8220e-05  3.0899e-04  6.7032e-05  3.4536e-02  3.7655e-05  0:02:55 1350
   651  3.7889e-05  3.0833e-04  6.5891e-05  3.4899e-02  3.7332e-05  0:02:20 1349
   652  3.7602e-05  3.0764e-04  6.4786e-05  3.5307e-02  3.7052e-05  0:01:52 1348
   653  3.7356e-05  3.0694e-04  6.3718e-05  3.5788e-02  3.6813e-05  0:01:29 1347
   654  3.7149e-05  3.0623e-04  6.2689e-05  3.6354e-02  3.6613e-05  0:01:11 1346
   655  3.6978e-05  3.0550e-04  6.1699e-05  3.7033e-02  3.6448e-05  0:05:26 1345
   656  3.6841e-05  3.0476e-04  6.0749e-05  3.7875e-02  3.6317e-05  0:04:21 1344
   657  3.6734e-05  3.0402e-04  5.9839e-05  3.9017e-02  3.6216e-05  0:03:28 1343
   658  3.6655e-05  3.0326e-04  5.8970e-05  4.0772e-02  3.6143e-05  0:02:47 1342
   659  3.6600e-05  3.0251e-04  5.8142e-05  4.3264e-02  3.6093e-05  0:02:13 1341
   660  3.6567e-05  3.0175e-04  5.7354e-05  4.3695e-02  3.6065e-05  0:01:46 1340

  iter  continuity  x-velocity  y-velocity  z-velocity      energy     time/iter
   661  3.6550e-05  3.0097e-04  5.6606e-05  4.4908e-02  3.6053e-05  0:05:53 1339
   662  3.6547e-05  3.0021e-04  5.5896e-05  4.6284e-02  3.6055e-05  0:04:42 1338
   663  3.6553e-05  2.9945e-04  5.5225e-05  4.7264e-02  3.6066e-05  0:03:46 1337
   664  3.6561e-05  2.9869e-04  5.4591e-05  4.8527e-02  3.6079e-05  0:03:00 1336
   665  3.6569e-05  2.9795e-04  5.3992e-05  4.9963e-02  3.6092e-05  0:02:24 1335
   666  3.6571e-05  2.9722e-04  5.3428e-05  5.1525e-02  3.6099e-05  0:01:55 1334
   667  3.6563e-05  2.9650e-04  5.2896e-05  5.3213e-02  3.6095e-05  0:01:32 1333
   668  3.6540e-05  2.9579e-04  5.2393e-05  5.5113e-02  3.6077e-05  0:05:40 1332
   669  3.6498e-05  2.9510e-04  5.1920e-05  5.7588e-02  3.6039e-05  0:04:32 1331
   670  3.6433e-05  2.9442e-04  5.1472e-05  6.0705e-02  3.5978e-05  0:03:37 1330
   671  3.6341e-05  2.9376e-04  5.1049e-05  6.2296e-02  3.5891e-05  0:02:54 1329

  iter  continuity  x-velocity  y-velocity  z-velocity      energy     time/iter
   672  3.6219e-05  2.9312e-04  5.0648e-05  6.4270e-02  3.5773e-05  0:02:19 1328
   673  3.6066e-05  2.9250e-04  5.0267e-05  6.6497e-02  3.5624e-05  0:01:51 1327
   674  3.5878e-05  2.9190e-04  4.9903e-05  6.9031e-02  3.5440e-05  0:01:29 1326
   675  3.5654e-05  2.9131e-04  4.9556e-05  7.1662e-02  3.5220e-05  0:05:36 1325
   676  3.5395e-05  2.9070e-04  4.9245e-05  7.3964e-02  3.4966e-05  0:04:29 1324
   677  3.5122e-05  2.9015e-04  4.8923e-05  7.6500e-02  3.4696e-05  0:03:35 1323
   678  3.4813e-05  2.8963e-04  4.8597e-05  7.9215e-02  3.4392e-05  0:02:52 1322
   679  3.4462e-05  2.8911e-04  4.8284e-05  8.2080e-02  3.4045e-05  0:02:17 1321
   680  3.4075e-05  2.8860e-04  4.7981e-05  8.5088e-02  3.3661e-05  0:01:50 1320
   681  3.3656e-05  2.8810e-04  4.7684e-05  8.8245e-02  3.3246e-05  0:01:28 1319
   682  3.3210e-05  2.8760e-04  4.7388e-05  9.1555e-02  3.2804e-05  0:01:10 1318

  iter  continuity  x-velocity  y-velocity  z-velocity      energy     time/iter
   683  3.2740e-05  2.8710e-04  4.7095e-05  9.5032e-02  3.2338e-05  0:05:19 1317
   684  3.2256e-05  2.8659e-04  4.6830e-05  9.8793e-02  3.1858e-05  0:04:15 1316
   685  3.1758e-05  2.8611e-04  4.6525e-05  1.0277e-01  3.1364e-05  0:03:24 1315
   686  3.1241e-05  2.8563e-04  4.6209e-05  1.0702e-01  3.0851e-05  0:02:43 1314
   687  3.0711e-05  2.8515e-04  4.5893e-05  1.1183e-01  3.0325e-05  0:02:10 1313
   688  3.0178e-05  2.8467e-04  4.5575e-05  1.1704e-01  2.9796e-05  0:06:07 1312
   689  2.9645e-05  2.8419e-04  4.5252e-05  1.2255e-01  2.9267e-05  0:04:53 1311
   690  2.9117e-05  2.8372e-04  4.4922e-05  1.2837e-01  2.8743e-05  0:03:54 1310
   691  2.8596e-05  2.8326e-04  4.4583e-05  1.3443e-01  2.8226e-05  0:03:07 1309
   692  2.8085e-05  2.8277e-04  4.4234e-05  1.4067e-01  2.7720e-05  0:02:30 1308
   693  2.7589e-05  2.8229e-04  4.3874e-05  1.4699e-01  2.7228e-05  0:02:00 1307

  iter  continuity  x-velocity  y-velocity  z-velocity      energy     time/iter
   694  2.7076e-05  2.8165e-04  4.3505e-05  1.5356e-01  2.6719e-05  0:05:57 1306
   695  2.6621e-05  2.8098e-04  4.3119e-05  1.6031e-01  2.6269e-05  0:04:45 1305
   696  2.6214e-05  2.8046e-04  4.2723e-05  1.6713e-01  2.5867e-05  0:03:48 1304
   697  2.5823e-05  2.7988e-04  4.2331e-05  1.7401e-01  2.5480e-05  0:03:02 1303
   698  2.5451e-05  2.7936e-04  4.1934e-05  1.8101e-01  2.5113e-05  0:02:26 1302
   699  2.5103e-05  2.7884e-04  4.1532e-05  1.8830e-01  2.4770e-05  0:01:56 1301
   700  2.4754e-05  2.7829e-04  4.1120e-05  1.8801e-01  2.4425e-05  0:01:33 1300
   701  2.4450e-05  2.7779e-04  4.0706e-05  1.9983e-01  2.4126e-05  0:01:14 1299
   702  2.4165e-05  2.7727e-04  4.0295e-05  2.4565e-01  2.3846e-05  0:05:19 1298
   703  2.3898e-05  2.7673e-04  3.9879e-05  3.1145e-01  2.3583e-05  0:04:15 1297
   704  2.3643e-05  2.7618e-04  3.9454e-05  3.8552e-01  2.3333e-05  0:03:24 1296

  iter  continuity  x-velocity  y-velocity  z-velocity      energy     time/iter
   705  2.3417e-05  2.7563e-04  3.9029e-05  4.4192e-01  2.3110e-05  0:02:43 1295
   706  2.3214e-05  2.7508e-04  3.8604e-05  4.8312e-01  2.2911e-05  0:02:10 1294
   707  2.3031e-05  2.7452e-04  3.8180e-05  5.4200e-01  2.2733e-05  0:01:44 1293
   708  2.2867e-05  2.7397e-04  3.7759e-05  6.0292e-01  2.2573e-05  0:01:23 1292
   709  2.2720e-05  2.7342e-04  3.7342e-05  6.1994e-01  2.2429e-05  0:05:25 1291
   710  2.2581e-05  2.7287e-04  3.6928e-05  6.2916e-01  2.2294e-05  0:04:20 1290
   711  2.2442e-05  2.7226e-04  3.6521e-05  6.5511e-01  2.2158e-05  0:03:28 1289
   712  2.2324e-05  2.7167e-04  3.6120e-05  6.9941e-01  2.2043e-05  0:02:46 1288
   713  2.2239e-05  2.7113e-04  3.5730e-05  7.5020e-01  2.1961e-05  0:02:13 1287
   714  2.2168e-05  2.7062e-04  3.5350e-05  8.0770e-01  2.1894e-05  0:01:46 1286
   715  2.2111e-05  2.7013e-04  3.4980e-05  8.7415e-01  2.1840e-05  0:01:25 1285

  iter  continuity  x-velocity  y-velocity  z-velocity      energy     time/iter
   716  2.2069e-05  2.6969e-04  3.4619e-05  9.4790e-01  2.1801e-05  0:05:25 1284
   717  2.2043e-05  2.6928e-04  3.4269e-05  1.0295e+00  2.1777e-05  0:04:19 1283
   718  2.2033e-05  2.6893e-04  3.3931e-05  1.1094e+00  2.1768e-05  0:03:27 1282
   719  2.2036e-05  2.6863e-04  3.3607e-05  1.1942e+00  2.1775e-05  0:02:46 1281
   720  2.2052e-05  2.6835e-04  3.3296e-05  1.3030e+00  2.1793e-05  0:02:13 1280
   721  2.2088e-05  2.6813e-04  3.3000e-05  1.4209e+00  2.1832e-05  0:01:46 1279
   722  2.2136e-05  2.6802e-04  3.2720e-05  1.5565e+00  2.1883e-05  0:01:25 1278
   723  2.2193e-05  2.6800e-04  3.2457e-05  1.6898e+00  2.1944e-05  0:05:23 1277
   724  2.2188e-05  2.6796e-04  3.2161e-05  1.8254e+00  2.1942e-05  0:04:18 1276
   725  2.2154e-05  2.6786e-04  3.1875e-05  1.9710e+00  2.1910e-05  0:03:26 1275
   726  2.2091e-05  2.6778e-04  3.1613e-05  2.0936e+00  2.1850e-05  0:02:45 1274

  iter  continuity  x-velocity  y-velocity  z-velocity      energy     time/iter
   727  2.2040e-05  2.6784e-04  3.1374e-05  2.1795e+00  2.1802e-05  0:02:12 1273
   728  2.1935e-05  2.6781e-04  3.1144e-05  2.2278e+00  2.1700e-05  0:01:45 1272
   729  2.1820e-05  2.6780e-04  3.0924e-05  2.2430e+00  2.1587e-05  0:01:24 1271
   730  2.1854e-05  2.6758e-04  3.0679e-05  2.2203e+00  2.1626e-05  0:01:07 1270
   731  2.1939e-05  2.6755e-04  3.0430e-05  2.0877e+00  2.1717e-05  0:05:08 1269
   732  2.1841e-05  2.6718e-04  3.0224e-05  1.9012e+00  2.1622e-05  0:04:06 1268
   733  2.1636e-05  2.6655e-04  3.0027e-05  1.7403e+00  2.1419e-05  0:03:17 1267
   734  2.1384e-05  2.6575e-04  2.9835e-05  1.6604e+00  2.1169e-05  0:02:37 1266
   735  2.1096e-05  2.6386e-04  2.9619e-05  1.6817e+00  2.0882e-05  0:02:06 1265
   736  2.0910e-05  2.6202e-04  2.9417e-05  1.7499e+00  2.0698e-05  0:01:40 1264
   737  2.0538e-05  2.6019e-04  2.9216e-05  1.8182e+00  2.0326e-05  0:01:20 1263

  iter  continuity  x-velocity  y-velocity  z-velocity      energy     time/iter
   738  2.0091e-05  2.5852e-04  2.8982e-05  1.8726e+00  1.9878e-05  0:01:04 1262
   739  1.9663e-05  2.5710e-04  2.8737e-05  1.9191e+00  1.9450e-05  0:05:03 1261
   740  1.9281e-05  2.5595e-04  2.8500e-05  1.9775e+00  1.9069e-05  0:04:03 1260
   741  1.8948e-05  2.5505e-04  2.8272e-05  2.0330e+00  1.8738e-05  0:03:14 1259
   742  1.8658e-05  2.5436e-04  2.8049e-05  2.0897e+00  1.8450e-05  0:02:35 1258
   743  1.8315e-05  2.5375e-04  2.7823e-05  2.1750e+00  1.8109e-05  0:02:04 1257
   744  1.7967e-05  2.5328e-04  2.7601e-05  2.2885e+00  1.7762e-05  0:01:39 1256
   745  1.7741e-05  2.5311e-04  2.7391e-05  2.4318e+00  1.7540e-05  0:01:19 1255
   746  1.7597e-05  2.5316e-04  2.7199e-05  2.5941e+00  1.7400e-05  0:01:03 1254
   747  1.7526e-05  2.5347e-04  2.7020e-05  2.7560e+00  1.7333e-05  0:00:51 1253
   748  1.7526e-05  2.5402e-04  2.6851e-05  2.9312e+00  1.7338e-05  0:04:51 1252

  iter  continuity  x-velocity  y-velocity  z-velocity      energy     time/iter
   749  1.7601e-05  2.5485e-04  2.6695e-05  3.0825e+00  1.7419e-05  0:03:52 1251
   750  1.7754e-05  2.5596e-04  2.6554e-05  3.1883e+00  1.7578e-05  0:03:06 1250
   751  1.7952e-05  2.5734e-04  2.6418e-05  3.3128e+00  1.7782e-05  0:02:29 1249
   752  1.8079e-05  2.5947e-04  2.6155e-05  3.5187e+00  1.7916e-05  0:01:59 1248
   753  1.8239e-05  2.6242e-04  2.5975e-05  3.6518e+00  1.8082e-05  0:01:35 1247
   754  1.6416e-05  2.6020e-04  2.5829e-05  3.7418e+00  1.6250e-05  0:01:16 1246
   755  1.5832e-05  2.5838e-04  2.5599e-05  3.6737e+00  1.5668e-05  0:01:01 1245
   756  1.5520e-05  2.5723e-04  2.5378e-05  3.4406e+00  1.5358e-05  0:04:57 1244
   757  1.5304e-05  2.5636e-04  2.5155e-05  3.1633e+00  1.5144e-05  0:03:58 1243
   758  1.5181e-05  2.5581e-04  2.4958e-05  2.9309e+00  1.5022e-05  0:03:10 1242
   759  1.5069e-05  2.5550e-04  2.4804e-05  2.7854e+00  1.4911e-05  0:02:32 1241

  iter  continuity  x-velocity  y-velocity  z-velocity      energy     time/iter
   760  1.4917e-05  2.5529e-04  2.4663e-05  2.7454e+00  1.4760e-05  0:02:01 1240
   761  1.4726e-05  2.5510e-04  2.4500e-05  2.7871e+00  1.4570e-05  0:01:37 1239
   762  1.4552e-05  2.5488e-04  2.4300e-05  2.8652e+00  1.4396e-05  0:01:18 1238
   763  1.4369e-05  2.5459e-04  2.4050e-05  2.9237e+00  1.4214e-05  0:01:02 1237
   764  1.5024e-05  2.5314e-04  2.3781e-05  2.8722e+00  1.4879e-05  0:00:50 1236
   765  1.5719e-05  2.5259e-04  2.3345e-05  2.7710e+00  1.5583e-05  0:04:47 1235
   766  1.5561e-05  2.5150e-04  2.3070e-05  2.6832e+00  1.5425e-05  0:03:49 1234
   767  1.5116e-05  2.5020e-04  2.2846e-05  2.5635e+00  1.4978e-05  0:03:03 1233
   768  1.4659e-05  2.4895e-04  2.2617e-05  2.4500e+00  1.4517e-05  0:02:26 1232
   769  1.4261e-05  2.4786e-04  2.2388e-05  2.3634e+00  1.4118e-05  0:01:57 1231
   770  1.3931e-05  2.4687e-04  2.2163e-05  2.3157e+00  1.3786e-05  0:01:34 1230

  iter  continuity  x-velocity  y-velocity  z-velocity      energy     time/iter
   771  1.3839e-05  2.4590e-04  2.1938e-05  2.2918e+00  1.3695e-05  0:01:15 1229
   772  1.3711e-05  2.4494e-04  2.1681e-05  2.2450e+00  1.3567e-05  0:01:00 1228
   773  1.3515e-05  2.4388e-04  2.1457e-05  2.2042e+00  1.3371e-05  0:00:48 1227
   774  1.3311e-05  2.4276e-04  2.1258e-05  2.1545e+00  1.3165e-05  0:00:38 1226
   775  1.3017e-05  2.4149e-04  2.1072e-05  2.1142e+00  1.2870e-05  0:04:36 1225
   776  1.2917e-05  2.3982e-04  2.0871e-05  2.0721e+00  1.2770e-05  0:03:40 1224
   777  1.3140e-05  2.3855e-04  2.0736e-05  2.0383e+00  1.2995e-05  0:02:56 1223
   778  1.3143e-05  2.3724e-04  2.0661e-05  2.0624e+00  1.2999e-05  0:02:21 1222
   779  1.3032e-05  2.3589e-04  2.0572e-05  2.0546e+00  1.2886e-05  0:01:52 1221
   780  1.2897e-05  2.3462e-04  2.0468e-05  2.0525e+00  1.2749e-05  0:01:30 1220
   781  1.2772e-05  2.3345e-04  2.0362e-05  2.0297e+00  1.2623e-05  0:01:12 1219

  iter  continuity  x-velocity  y-velocity  z-velocity      energy     time/iter
   782  1.2670e-05  2.3239e-04  2.0263e-05  1.9750e+00  1.2520e-05  0:00:57 1218
   783  1.2594e-05  2.3142e-04  2.0172e-05  1.9049e+00  1.2443e-05  0:00:46 1217
   784  1.2544e-05  2.3053e-04  2.0092e-05  1.8222e+00  1.2393e-05  0:04:40 1216
   785  1.2533e-05  2.2971e-04  2.0022e-05  1.7303e+00  1.2381e-05  0:03:44 1215
   786  1.2537e-05  2.2894e-04  1.9961e-05  1.6447e+00  1.2385e-05  0:02:59 1214
   787  1.2547e-05  2.2821e-04  1.9910e-05  1.5723e+00  1.2395e-05  0:02:23 1213
   788  1.2556e-05  2.2750e-04  1.9869e-05  1.5170e+00  1.2403e-05  0:01:54 1212
   789  1.2479e-05  2.2650e-04  1.9834e-05  1.4788e+00  1.2325e-05  0:01:31 1211
   790  1.2442e-05  2.2554e-04  1.9792e-05  1.4469e+00  1.2287e-05  0:01:13 1210
   791  1.2435e-05  2.2456e-04  1.9758e-05  1.4161e+00  1.2279e-05  0:00:58 1209
   792  1.2448e-05  2.2368e-04  1.9735e-05  1.3941e+00  1.2292e-05  0:00:47 1208

  iter  continuity  x-velocity  y-velocity  z-velocity      energy     time/iter
   793  1.2481e-05  2.2290e-04  1.9724e-05  1.3864e+00  1.2325e-05  0:04:39 1207
   794  1.2522e-05  2.2219e-04  1.9728e-05  1.3818e+00  1.2366e-05  0:03:43 1206
   795  1.2571e-05  2.2152e-04  1.9744e-05  1.3607e+00  1.2414e-05  0:02:58 1205
   796  1.2625e-05  2.2090e-04  1.9770e-05  1.3330e+00  1.2469e-05  0:02:22 1204
   797  1.2682e-05  2.2032e-04  1.9807e-05  1.3078e+00  1.2526e-05  0:01:54 1203
   798  1.2726e-05  2.1973e-04  1.9853e-05  1.2746e+00  1.2570e-05  0:01:31 1202
   799  1.2706e-05  2.1895e-04  1.9902e-05  1.2294e+00  1.2549e-05  0:01:13 1201
   800  1.2709e-05  2.1821e-04  1.9934e-05  1.1803e+00  1.2552e-05  0:00:58 1200
   801  1.2723e-05  2.1750e-04  1.9966e-05  1.1362e+00  1.2566e-05  0:04:46 1199
   802  1.2742e-05  2.1681e-04  2.0002e-05  1.0939e+00  1.2584e-05  0:03:49 1198
   803  1.2762e-05  2.1614e-04  2.0044e-05  1.0457e+00  1.2604e-05  0:03:03 1197

  iter  continuity  x-velocity  y-velocity  z-velocity      energy     time/iter
   804  1.2784e-05  2.1548e-04  2.0092e-05  9.9604e-01  1.2626e-05  0:02:26 1196
   805  1.2809e-05  2.1485e-04  2.0145e-05  9.4906e-01  1.2651e-05  0:01:57 1195
   806  1.2835e-05  2.1422e-04  2.0202e-05  9.0469e-01  1.2677e-05  0:01:33 1194
   807  1.2865e-05  2.1362e-04  2.0263e-05  8.6207e-01  1.2706e-05  0:01:15 1193
   808  1.2899e-05  2.1304e-04  2.0326e-05  8.2048e-01  1.2741e-05  0:01:00 1192
   809  1.2917e-05  2.1248e-04  2.0393e-05  7.8031e-01  1.2759e-05  0:00:48 1191
[...]
  1791  1.9590e-07  2.0779e-06  2.5942e-07  1.3884e-01  1.9492e-07  0:00:09  209
  1792  1.9557e-07  2.0816e-06  2.6004e-07  1.3701e-01  1.9459e-07  0:00:07  208
  1793  1.9524e-07  2.0838e-06  2.6049e-07  1.3503e-01  1.9427e-07  0:00:06  207

  iter  continuity  x-velocity  y-velocity  z-velocity      energy     time/iter
  1794  1.9494e-07  2.0848e-06  2.6076e-07  1.3297e-01  1.9397e-07  0:00:05  206
  1795  1.9468e-07  2.0848e-06  2.6084e-07  1.3114e-01  1.9371e-07  0:00:04  205
  1796  1.9448e-07  2.0840e-06  2.6073e-07  1.2946e-01  1.9351e-07  0:00:03  204
  1797  1.9435e-07  2.0828e-06  2.6046e-07  1.2798e-01  1.9339e-07  0:00:02  203
  1798  1.9430e-07  2.0813e-06  2.6006e-07  1.2663e-01  1.9334e-07  0:00:42  202
  1799  1.9435e-07  2.0797e-06  2.5955e-07  1.2535e-01  1.9339e-07  0:00:34  201
  1800  1.9449e-07  2.0782e-06  2.5897e-07  1.2416e-01  1.9353e-07  0:00:27  200
  1801  1.9472e-07  2.0769e-06  2.5836e-07  1.2298e-01  1.9377e-07  0:00:21  199
  1802  1.9504e-07  2.0760e-06  2.5775e-07  1.2203e-01  1.9409e-07  0:00:17  198
  1803  1.9545e-07  2.0757e-06  2.5715e-07  1.2122e-01  1.9450e-07  0:00:14  197
  1804  1.9593e-07  2.0760e-06  2.5659e-07  1.2050e-01  1.9499e-07  0:00:11  196

  iter  continuity  x-velocity  y-velocity  z-velocity      energy     time/iter
  1805  1.9649e-07  2.0770e-06  2.5610e-07  1.1988e-01  1.9554e-07  0:00:09  195
  1806  1.9711e-07  2.0788e-06  2.5568e-07  1.1933e-01  1.9617e-07  0:00:07  194
  1807  1.9780e-07  2.0814e-06  2.5534e-07  1.1879e-01  1.9687e-07  0:00:05  193
  1808  1.9856e-07  2.0850e-06  2.5509e-07  1.1823e-01  1.9762e-07  0:00:04  192
  1809  1.9937e-07  2.0895e-06  2.5494e-07  1.1767e-01  1.9844e-07  0:00:03  191
  1810  2.0025e-07  2.0951e-06  2.5490e-07  1.1717e-01  1.9932e-07  0:00:03  190
  1811  2.0119e-07  2.1016e-06  2.5496e-07  1.1675e-01  2.0027e-07  0:00:02  189
  1812  2.0219e-07  2.1092e-06  2.5512e-07  1.1650e-01  2.0127e-07  0:00:39  188
  1813  2.0325e-07  2.1178e-06  2.5538e-07  1.1660e-01  2.0234e-07  0:00:31  187
  1814  2.0437e-07  2.1274e-06  2.5574e-07  1.1680e-01  2.0346e-07  0:00:25  186
  1815  2.0554e-07  2.1381e-06  2.5618e-07  1.1706e-01  2.0463e-07  0:00:20  185

  iter  continuity  x-velocity  y-velocity  z-velocity      energy     time/iter
  1816  2.0677e-07  2.1497e-06  2.5672e-07  1.1734e-01  2.0586e-07  0:00:16  184
  1817  2.0804e-07  2.1623e-06  2.5734e-07  1.1773e-01  2.0714e-07  0:00:13  183
  1818  2.0936e-07  2.1758e-06  2.5803e-07  1.1852e-01  2.0847e-07  0:00:10  182
  1819  2.1072e-07  2.1902e-06  2.5880e-07  1.1938e-01  2.0983e-07  0:00:08  181
  1820  2.1211e-07  2.2054e-06  2.5962e-07  1.2025e-01  2.1122e-07  0:00:06  180
  1821  2.1353e-07  2.2214e-06  2.6050e-07  1.2155e-01  2.1265e-07  0:00:05  179
  1822  2.1497e-07  2.2381e-06  2.6143e-07  1.2316e-01  2.1408e-07  0:00:04  178
  1823  2.1641e-07  2.2555e-06  2.6239e-07  1.2494e-01  2.1553e-07  0:00:03  177
  1824  2.1786e-07  2.2734e-06  2.6337e-07  1.2688e-01  2.1698e-07  0:00:03  176
  1825  2.1930e-07  2.2919e-06  2.6438e-07  1.2885e-01  2.1843e-07  0:00:02  175
  1826  2.2073e-07  2.3108e-06  2.6541e-07  1.3095e-01  2.1986e-07  0:00:36  174

  iter  continuity  x-velocity  y-velocity  z-velocity      energy     time/iter
  1827  2.2214e-07  2.3300e-06  2.6644e-07  1.3305e-01  2.2127e-07  0:00:29  173
  1828  2.2353e-07  2.3496e-06  2.6747e-07  1.3508e-01  2.2266e-07  0:00:23  172
  1829  2.2489e-07  2.3694e-06  2.6850e-07  1.3791e-01  2.2403e-07  0:00:18  171
  1830  2.2621e-07  2.3893e-06  2.6952e-07  1.4112e-01  2.2536e-07  0:00:15  170
  1831  2.2750e-07  2.4092e-06  2.7053e-07  1.4510e-01  2.2664e-07  0:00:12  169
  1832  2.2486e-07  2.4072e-06  2.7149e-07  1.4859e-01  2.2400e-07  0:00:09  168
  1833  2.1865e-07  2.3807e-06  2.7099e-07  1.5134e-01  2.1778e-07  0:00:07  167
  1834  2.0731e-07  2.2881e-06  2.6828e-07  1.5328e-01  2.0643e-07  0:00:06  166
  1835  2.0367e-07  2.2231e-06  2.6142e-07  1.5561e-01  2.0282e-07  0:00:05  165
  1836  2.0086e-07  2.1958e-06  2.5691e-07  1.5873e-01  2.0002e-07  0:00:04  164
  1837  1.9799e-07  2.1820e-06  2.5514e-07  1.6185e-01  1.9717e-07  0:00:03  163

  iter  continuity  x-velocity  y-velocity  z-velocity      energy     time/iter
  1838  1.9625e-07  2.1741e-06  2.5437e-07  1.6523e-01  1.9544e-07  0:00:02  162
  1839  1.9540e-07  2.1691e-06  2.5426e-07  1.6795e-01  1.9460e-07  0:00:02  161
  1840  1.9491e-07  2.1660e-06  2.5459e-07  1.7038e-01  1.9412e-07  0:00:33  160
  1841  1.9449e-07  2.1640e-06  2.5508e-07  1.7079e-01  1.9371e-07  0:00:27  159
  1842  1.8579e-07  2.0960e-06  2.5550e-07  1.6901e-01  1.8498e-07  0:00:21  158
  1843  1.9838e-07  2.0516e-06  2.5249e-07  1.6645e-01  1.9765e-07  0:00:17  157
  1844  2.1235e-07  2.0981e-06  2.5158e-07  1.6370e-01  2.1168e-07  0:00:13  156
  1845  2.1634e-07  2.1551e-06  2.5758e-07  1.6118e-01  2.1567e-07  0:00:11  155
  1846  2.1740e-07  2.2075e-06  2.6394e-07  1.5905e-01  2.1673e-07  0:00:08  154
  1847  2.1896e-07  2.2548e-06  2.6925e-07  1.5713e-01  2.1828e-07  0:00:07  153
  1848  2.2120e-07  2.2974e-06  2.7409e-07  1.5545e-01  2.2052e-07  0:00:05  152

  iter  continuity  x-velocity  y-velocity  z-velocity      energy     time/iter
  1849  2.2340e-07  2.3346e-06  2.7862e-07  1.5413e-01  2.2271e-07  0:00:04  151
  1850  2.2517e-07  2.3661e-06  2.8267e-07  1.5302e-01  2.2448e-07  0:00:03  150
  1851  2.2643e-07  2.3919e-06  2.8617e-07  1.5213e-01  2.2573e-07  0:00:03  149
  1852  2.2724e-07  2.4125e-06  2.8916e-07  1.5146e-01  2.2653e-07  0:00:02  148
  1853  2.2776e-07  2.4285e-06  2.9178e-07  1.5111e-01  2.2704e-07  0:00:31  147
  1854  2.2807e-07  2.4403e-06  2.9413e-07  1.5101e-01  2.2735e-07  0:00:25  146
  1855  2.2823e-07  2.4485e-06  2.9630e-07  1.5098e-01  2.2750e-07  0:00:20  145
  1856  2.2823e-07  2.4535e-06  2.9832e-07  1.5152e-01  2.2749e-07  0:00:16  144
  1857  2.2804e-07  2.4557e-06  3.0019e-07  1.5259e-01  2.2729e-07  0:00:12  143
  1858  2.2766e-07  2.4554e-06  3.0188e-07  1.5478e-01  2.2690e-07  0:00:10  142
  1859  2.2710e-07  2.4530e-06  3.0332e-07  1.5903e-01  2.2634e-07  0:00:08  141

  iter  continuity  x-velocity  y-velocity  z-velocity      energy     time/iter
  1860  2.2640e-07  2.4487e-06  3.0447e-07  1.6563e-01  2.2564e-07  0:00:06  140
  1861  2.2558e-07  2.4428e-06  3.0532e-07  1.7314e-01  2.2481e-07  0:00:05  139
  1862  2.2467e-07  2.4352e-06  3.0582e-07  1.8050e-01  2.2390e-07  0:00:04  138
  1863  2.2368e-07  2.4264e-06  3.0597e-07  1.8737e-01  2.2291e-07  0:00:03  137
  1864  2.2265e-07  2.4163e-06  3.0578e-07  1.9329e-01  2.2188e-07  0:00:02  136
  1865  2.2159e-07  2.4051e-06  3.0526e-07  1.9749e-01  2.2081e-07  0:00:02  135
  1866  2.2050e-07  2.3929e-06  3.0444e-07  1.9965e-01  2.1972e-07  0:00:02  134
  1867  2.1940e-07  2.3797e-06  3.0336e-07  1.9988e-01  2.1862e-07  0:00:28  133
  1868  2.1828e-07  2.3656e-06  3.0205e-07  1.9872e-01  2.1749e-07  0:00:22  132
  1869  2.1710e-07  2.3507e-06  3.0053e-07  1.9644e-01  2.1632e-07  0:00:18  131
  1870  2.1590e-07  2.3351e-06  2.9880e-07  1.9331e-01  2.1511e-07  0:00:14  130

  iter  continuity  x-velocity  y-velocity  z-velocity      energy     time/iter
  1871  2.1466e-07  2.3188e-06  2.9691e-07  1.8959e-01  2.1387e-07  0:00:11  129
  1872  2.1337e-07  2.3019e-06  2.9488e-07  1.8548e-01  2.1258e-07  0:00:09  128
  1873  2.1204e-07  2.2845e-06  2.9271e-07  1.8124e-01  2.1125e-07  0:00:07  127
  1874  2.1064e-07  2.2666e-06  2.9042e-07  1.7700e-01  2.0986e-07  0:00:06  126
  1875  2.0920e-07  2.2483e-06  2.8802e-07  1.7273e-01  2.0841e-07  0:00:04  125
  1876  2.0768e-07  2.2296e-06  2.8553e-07  1.6889e-01  2.0689e-07  0:00:03  124
  1877  2.0611e-07  2.2107e-06  2.8294e-07  1.6488e-01  2.0531e-07  0:00:03  123
  1878  2.0447e-07  2.1916e-06  2.8028e-07  1.6043e-01  2.0368e-07  0:00:02  122
  1879  2.0280e-07  2.1724e-06  2.7756e-07  1.5557e-01  2.0201e-07  0:00:26  121
  1880  2.0108e-07  2.1531e-06  2.7481e-07  1.5100e-01  2.0029e-07  0:00:21  120
  1881  1.9932e-07  2.1339e-06  2.7202e-07  1.4651e-01  1.9854e-07  0:00:16  119

  iter  continuity  x-velocity  y-velocity  z-velocity      energy     time/iter
  1882  1.9753e-07  2.1148e-06  2.6920e-07  1.4203e-01  1.9674e-07  0:00:13  118
  1883  1.9571e-07  2.0958e-06  2.6637e-07  1.3743e-01  1.9493e-07  0:00:10  117
  1884  1.9388e-07  2.0771e-06  2.6352e-07  1.3307e-01  1.9310e-07  0:00:08  116
  1885  1.9204e-07  2.0587e-06  2.6068e-07  1.2910e-01  1.9126e-07  0:00:06  115
  1886  1.9019e-07  2.0406e-06  2.5785e-07  1.2506e-01  1.8942e-07  0:00:05  114
  1887  1.8835e-07  2.0230e-06  2.5502e-07  1.2097e-01  1.8758e-07  0:00:04  113
  1888  1.8652e-07  2.0058e-06  2.5223e-07  1.1690e-01  1.8576e-07  0:00:03  112
  1889  1.8471e-07  1.9892e-06  2.4946e-07  1.1296e-01  1.8395e-07  0:00:03  111
  1890  1.8292e-07  1.9731e-06  2.4673e-07  1.0914e-01  1.8217e-07  0:00:02  110
  1891  1.8116e-07  1.9577e-06  2.4404e-07  1.0559e-01  1.8041e-07  0:00:02  109
  1892  1.7942e-07  1.9428e-06  2.4140e-07  1.0286e-01  1.7867e-07  0:00:01  108

  iter  continuity  x-velocity  y-velocity  z-velocity      energy     time/iter
  1893  1.7771e-07  1.9286e-06  2.3881e-07  1.0114e-01  1.7697e-07  0:00:22  107
  1894  1.7603e-07  1.9152e-06  2.3629e-07  1.0003e-01  1.7530e-07  0:00:18  106
  1895  1.7438e-07  1.9024e-06  2.3383e-07  1.0006e-01  1.7365e-07  0:00:14  105
  1896  1.7276e-07  1.8904e-06  2.3142e-07  1.0055e-01  1.7204e-07  0:00:11  104
  1897  1.7118e-07  1.8791e-06  2.2907e-07  1.0100e-01  1.7046e-07  0:00:09  103
  1898  1.6964e-07  1.8687e-06  2.2679e-07  1.0100e-01  1.6892e-07  0:00:07  102
  1899  1.6815e-07  1.8590e-06  2.2456e-07  1.0093e-01  1.6745e-07  0:00:06  101
  1900  1.3679e-07  1.6356e-06  2.2278e-07  1.0143e-01  1.3598e-07  0:00:04  100
  1901  1.3165e-07  1.4707e-06  2.1005e-07  1.0307e-01  1.3089e-07  0:00:03   99
  1902  1.3259e-07  1.4042e-06  1.9986e-07  1.0543e-01  1.3190e-07  0:00:03   98
  1903  1.3124e-07  1.3754e-06  1.9579e-07  1.0960e-01  1.3059e-07  0:00:02   97

  iter  continuity  x-velocity  y-velocity  z-velocity      energy     time/iter
  1904  1.3035e-07  1.3626e-06  1.9376e-07  1.1463e-01  1.2973e-07  0:00:02   96
  1905  1.3060e-07  1.3586e-06  1.9260e-07  1.2096e-01  1.3000e-07  0:00:01   95
  1906  1.3142e-07  1.3607e-06  1.9209e-07  1.2648e-01  1.3083e-07  0:00:01   94
  1907  1.3238e-07  1.3671e-06  1.9192e-07  1.3089e-01  1.3179e-07  0:00:19   93
  1908  1.3329e-07  1.3764e-06  1.9185e-07  1.3378e-01  1.3271e-07  0:00:15   92
  1909  1.3418e-07  1.3877e-06  1.9180e-07  1.3503e-01  1.3360e-07  0:00:12   91
  1910  1.3511e-07  1.4003e-06  1.9177e-07  1.3543e-01  1.3453e-07  0:00:10   90
  1911  1.3613e-07  1.4136e-06  1.9178e-07  1.3500e-01  1.3555e-07  0:00:08   89
  1912  1.3728e-07  1.4274e-06  1.9184e-07  1.3410e-01  1.3669e-07  0:00:06   88
  1913  1.3852e-07  1.4414e-06  1.9197e-07  1.3292e-01  1.3793e-07  0:00:05   87
  1914  1.3983e-07  1.4556e-06  1.9214e-07  1.3134e-01  1.3924e-07  0:00:04   86

  iter  continuity  x-velocity  y-velocity  z-velocity      energy     time/iter
  1915  1.4119e-07  1.4698e-06  1.9233e-07  1.2936e-01  1.4060e-07  0:00:03   85
  1916  1.4257e-07  1.4842e-06  1.9252e-07  1.2717e-01  1.4198e-07  0:00:02   84
  1917  1.4397e-07  1.4986e-06  1.9268e-07  1.2485e-01  1.4338e-07  0:00:02   83
  1918  1.4539e-07  1.5134e-06  1.9280e-07  1.2255e-01  1.4480e-07  0:00:01   82
  1919  1.4683e-07  1.5284e-06  1.9290e-07  1.2033e-01  1.4625e-07  0:00:01   81
  1920  1.4830e-07  1.5437e-06  1.9297e-07  1.1830e-01  1.4771e-07  0:00:17   80
  1921  1.4980e-07  1.5596e-06  1.9304e-07  1.1648e-01  1.4921e-07  0:00:13   79
  1922  1.5132e-07  1.5759e-06  1.9314e-07  1.1486e-01  1.5074e-07  0:00:11   78
  1923  1.5288e-07  1.5927e-06  1.9328e-07  1.1344e-01  1.5229e-07  0:00:08   77
  1924  1.5446e-07  1.6101e-06  1.9349e-07  1.1221e-01  1.5388e-07  0:00:07   76
  1925  1.5607e-07  1.6281e-06  1.9379e-07  1.1115e-01  1.5549e-07  0:00:05   75

  iter  continuity  x-velocity  y-velocity  z-velocity      energy     time/iter
  1926  1.5770e-07  1.6466e-06  1.9420e-07  1.1026e-01  1.5711e-07  0:00:04   74
  1927  1.5933e-07  1.6656e-06  1.9471e-07  1.0951e-01  1.5875e-07  0:00:03   73
  1928  1.6098e-07  1.6851e-06  1.9534e-07  1.0892e-01  1.6040e-07  0:00:03   72
  1929  1.6263e-07  1.7051e-06  1.9610e-07  1.0844e-01  1.6205e-07  0:00:02   71
  1930  1.6428e-07  1.7254e-06  1.9697e-07  1.0809e-01  1.6370e-07  0:00:02   70
  1931  1.6592e-07  1.7460e-06  1.9796e-07  1.0786e-01  1.6534e-07  0:00:01   69
  1932  1.6755e-07  1.7669e-06  1.9905e-07  1.0774e-01  1.6698e-07  0:00:01   68
  1933  1.6917e-07  1.7880e-06  2.0023e-07  1.0772e-01  1.6860e-07  0:00:01   67
  1934  1.7077e-07  1.8092e-06  2.0150e-07  1.0783e-01  1.7020e-07  0:00:14   66
  1935  1.7234e-07  1.8304e-06  2.0283e-07  1.0811e-01  1.7177e-07  0:00:11   65
  1936  1.7388e-07  1.8516e-06  2.0420e-07  1.0844e-01  1.7331e-07  0:00:09   64

  iter  continuity  x-velocity  y-velocity  z-velocity      energy     time/iter
  1937  1.7539e-07  1.8727e-06  2.0562e-07  1.0882e-01  1.7483e-07  0:00:07   63
  1938  1.7687e-07  1.8935e-06  2.0705e-07  1.0937e-01  1.7631e-07  0:00:05   62
  1939  1.7830e-07  1.9142e-06  2.0850e-07  1.1036e-01  1.7774e-07  0:00:04   61
  1940  1.7968e-07  1.9344e-06  2.0993e-07  1.1166e-01  1.7912e-07  0:00:03   60
  1941  1.7392e-07  1.8737e-06  2.1118e-07  1.1293e-01  1.7337e-07  0:00:03   59
  1942  1.8695e-07  1.8945e-06  2.0724e-07  1.1412e-01  1.8645e-07  0:00:02   58
  1943  1.9294e-07  1.9413e-06  2.1012e-07  1.1517e-01  1.9247e-07  0:00:02   57
  1944  1.9402e-07  1.9875e-06  2.1679e-07  1.1620e-01  1.9355e-07  0:00:01   56
  1945  1.9456e-07  2.0304e-06  2.2305e-07  1.1734e-01  1.9408e-07  0:00:01   55
  1946  1.9561e-07  2.0705e-06  2.2862e-07  1.1887e-01  1.9513e-07  0:00:01   54
  1947  1.9687e-07  2.1083e-06  2.3385e-07  1.2090e-01  1.9638e-07  0:00:01   53

  iter  continuity  x-velocity  y-velocity  z-velocity      energy     time/iter
  1948  1.9804e-07  2.1434e-06  2.3870e-07  1.2318e-01  1.9754e-07  0:00:00   52
  1949  1.9899e-07  2.1757e-06  2.4310e-07  1.2506e-01  1.9848e-07  0:00:11   51
  1950  1.9977e-07  2.2053e-06  2.4701e-07  1.2695e-01  1.9925e-07  0:00:08   50
  1951  2.0041e-07  2.2321e-06  2.5044e-07  1.2796e-01  1.9988e-07  0:00:07   49
  1952  2.0099e-07  2.2562e-06  2.5339e-07  1.2912e-01  2.0046e-07  0:00:05   48
  1953  2.0154e-07  2.2776e-06  2.5589e-07  1.3084e-01  2.0100e-07  0:00:04   47
  1954  2.0204e-07  2.2965e-06  2.5794e-07  1.3245e-01  2.0150e-07  0:00:03   46
  1955  2.0247e-07  2.3128e-06  2.5952e-07  1.3399e-01  2.0193e-07  0:00:02   45
  1956  2.0283e-07  2.3265e-06  2.6063e-07  1.3510e-01  2.0227e-07  0:00:02   44
  1957  2.0308e-07  2.3377e-06  2.6125e-07  1.3526e-01  2.0253e-07  0:00:01   43
  1958  2.0324e-07  2.3465e-06  2.6139e-07  1.3440e-01  2.0269e-07  0:00:01   42

  iter  continuity  x-velocity  y-velocity  z-velocity      energy     time/iter
  1959  2.0331e-07  2.3529e-06  2.6105e-07  1.3335e-01  2.0276e-07  0:00:01   41
  1960  2.0329e-07  2.3570e-06  2.6029e-07  1.3290e-01  2.0273e-07  0:00:01   40
  1961  2.0317e-07  2.3589e-06  2.5914e-07  1.3312e-01  2.0261e-07  0:00:01   39
  1962  2.0293e-07  2.3587e-06  2.5763e-07  1.3319e-01  2.0237e-07  0:00:08   38
  1963  2.0258e-07  2.3566e-06  2.5581e-07  1.3294e-01  2.0202e-07  0:00:06   37
  1964  2.0212e-07  2.3526e-06  2.5374e-07  1.3240e-01  2.0157e-07  0:00:05   36
  1965  2.0155e-07  2.3469e-06  2.5145e-07  1.3201e-01  2.0100e-07  0:00:04   35
  1966  2.0088e-07  2.3395e-06  2.4900e-07  1.3147e-01  2.0032e-07  0:00:03   34
  1967  2.0010e-07  2.3307e-06  2.4642e-07  1.3115e-01  1.9955e-07  0:00:02   33
  1968  1.9919e-07  2.3204e-06  2.4375e-07  1.3019e-01  1.9863e-07  0:00:02   32
  1969  1.9815e-07  2.3088e-06  2.4099e-07  1.2924e-01  1.9760e-07  0:00:01   31

  iter  continuity  x-velocity  y-velocity  z-velocity      energy     time/iter
  1970  1.9699e-07  2.2960e-06  2.3818e-07  1.2874e-01  1.9644e-07  0:00:01   30
  1971  1.9572e-07  2.2820e-06  2.3532e-07  1.2811e-01  1.9518e-07  0:00:01   29
  1972  1.9029e-07  2.2396e-06  2.3249e-07  1.2784e-01  1.8974e-07  0:00:01   28
  1973  1.8147e-07  2.1324e-06  2.2857e-07  1.2852e-01  1.8093e-07  0:00:06   27
  1974  1.8146e-07  2.0865e-06  2.2250e-07  1.2856e-01  1.8094e-07  0:00:05   26
  1975  1.8045e-07  2.0621e-06  2.1985e-07  1.2841e-01  1.7995e-07  0:00:03   25
  1976  1.7901e-07  2.0447e-06  2.1849e-07  1.2816e-01  1.7853e-07  0:00:03   24
  1977  1.7787e-07  2.0299e-06  2.1730e-07  1.2774e-01  1.7741e-07  0:00:02   23
  1978  1.7696e-07  2.0161e-06  2.1615e-07  1.2722e-01  1.7651e-07  0:00:02   22
  1979  1.7604e-07  2.0025e-06  2.1491e-07  1.2672e-01  1.7559e-07  0:00:01   21
  1980  1.7495e-07  1.9886e-06  2.1346e-07  1.2625e-01  1.7450e-07  0:00:01   20

  iter  continuity  x-velocity  y-velocity  z-velocity      energy     time/iter
  1981  1.7365e-07  1.9739e-06  2.1176e-07  1.2597e-01  1.7320e-07  0:00:01   19
  1982  1.7216e-07  1.9585e-06  2.0986e-07  1.2605e-01  1.7172e-07  0:00:01   18
  1983  1.7053e-07  1.9422e-06  2.0783e-07  1.2679e-01  1.7009e-07  0:00:00   17
  1984  1.6878e-07  1.9251e-06  2.0575e-07  1.2759e-01  1.6833e-07  0:00:00   16
  1985  1.6692e-07  1.9072e-06  2.0367e-07  1.2845e-01  1.6648e-07  0:00:00   15
  1986  1.6498e-07  1.8886e-06  2.0162e-07  1.2911e-01  1.6454e-07  0:00:00   14
  1987  1.6296e-07  1.8694e-06  1.9960e-07  1.2969e-01  1.6251e-07  0:00:03   13
  1988  1.6086e-07  1.8498e-06  1.9760e-07  1.3005e-01  1.6042e-07  0:00:02   12
  1989  1.5871e-07  1.8297e-06  1.9561e-07  1.3004e-01  1.5827e-07  0:00:01   11
  1990  1.5652e-07  1.8094e-06  1.9361e-07  1.2949e-01  1.5608e-07  0:00:01   10
  1991  1.5430e-07  1.7889e-06  1.9160e-07  1.2799e-01  1.5387e-07  0:00:01    9

  iter  continuity  x-velocity  y-velocity  z-velocity      energy     time/iter
  1992  1.5207e-07  1.7683e-06  1.8956e-07  1.2593e-01  1.5164e-07  0:00:01    8
  1993  1.4986e-07  1.7478e-06  1.8749e-07  1.2340e-01  1.4944e-07  0:00:00    7
  1994  1.4769e-07  1.7273e-06  1.8540e-07  1.2074e-01  1.4727e-07  0:00:00    6
  1995  1.4555e-07  1.7070e-06  1.8329e-07  1.1825e-01  1.4514e-07  0:00:00    5
  1996  1.4347e-07  1.6869e-06  1.8118e-07  1.1626e-01  1.4306e-07  0:00:00    4
  1997  1.4144e-07  1.6671e-06  1.7907e-07  1.1504e-01  1.4104e-07  0:00:00    3
  1998  1.3944e-07  1.6477e-06  1.7699e-07  1.1331e-01  1.3904e-07  0:00:00    2
  1999  1.3749e-07  1.6289e-06  1.7492e-07  1.1154e-01  1.3710e-07  0:00:00    1
  2000  1.2727e-07  1.5390e-06  1.7312e-07  1.0978e-01  1.2688e-07  0:00:00    0

> 
adjoint/                parallel/               server/
define/                 parametric-study/       solve/
display/                plot/                   surface/
exit                    preferences/            turbo-workflow/
file/                   print-license-usage     views/
mesh/                   report/

> /file/write-case-data project1
Fast-loading "C:\PROGRA~1\ANSYSI~1\v231\fluent\fluent23.1.0\\addons\afd\lib\hdfio.bin"
Done.

Writing to Engs-30669:"C:\Users\kebl7595\Desktop\CFD\Runs\Actual Data\6 degrees\project1.cas.h5" in NODE0 mode and compression level 1 ...
       12996 cells,     1 zone  ...
       43722 faces,     8 zones ...
       17864 nodes,     1 zone  ...
  Done.
Done.

Writing to Engs-30669:"C:\Users\kebl7595\Desktop\CFD\Runs\Actual Data\6 degrees\project1.dat.h5" in NODE0 mode and compression level 1 ...
  Writing results.
Done.

> /file/export/ascii "./surface.dat" wing te () no pressure mach-number quit no

Writing "./surface.dat"...

Writing information to ascii file ...
Done.


> /plot/plot y "data.dat" no n n pressure-coefficient no n x-coordinate wing ()

> /report/forces/wall-forces y -0.10453 0.99452 0 y "Force"

> /exit

Posting ANSYS Product Improvement Program performance data 
Done.
Auto-Transcript Stop Time:  14:42:48, 20 May 2024 GMT Daylight Time 
Total Transcript Time: 3 Minute 25 Second.
