Auto-Transcript Start Time:  13:56:48, 20 May 2024 GMT Daylight Time 
Current Directory: "C:\Users\kebl7595\Desktop\CFD\Runs\Actual Data\0 degree normal domain"

              Welcome to ANSYS Fluent 2023 R1

              Copyright 1987-2023 ANSYS, Inc. All Rights Reserved.
              Unauthorized use, distribution or duplication is prohibited.
              This product is subject to U.S. laws governing export and re-export.
              For full Legal Notice, see documentation.

Build Time: Nov 28 2022 09:52:02 EST  Build Id: 10208  
 
Connected License Server List:	1055@ansyslic.eng.ox.ac.uk

*********************************************
Info: Your license enables 4-way parallel execution.
For faster simulations, please start the application with the appropriate parallel options.
*********************************************


     --------------------------------------------------------------
     This is an academic version of ANSYS FLUENT. Usage of this product
     license is limited to the terms and conditions specified in your ANSYS
     license form, additional terms section.
     --------------------------------------------------------------
Host spawning Node 0 on machine "Engs-30669" (win64).

------------------------------------------------------------------------------------
ID    Hostname    Core  O.S.         PID    Vendor                                 
------------------------------------------------------------------------------------
n0    Engs-30669  1/32  Windows-x64  14764  13th Gen Intel(R) Core(TM) i9-13900    
host  Engs-30669        Windows-x64  44652  13th Gen Intel(R) Core(TM) i9-13900    

MPI Option Selected: intel
------------------------------------------------------------------------------------

Cleanup script file is C:\\Users\\kebl7595\\Desktop\\CFD\\Runs\\Actual Data\\0 degree normal domain\\cleanup-fluent-Engs-30669-44652.bat
QA Service Message :
QA Services Agreement Enabled. This application is included in the scope of an ANSYS QA Services Agreement.
Posting ANSYS Product Improvement Program startup data
Done.

Reading journal file C:/Users/kebl7595/Desktop/CFD/Runs/Actual Data/0 degree normal domain/project1.jou...

> /file/set-batch-options no no no 

> 
define/                 parametric-study/       solve/
display/                plot/                   surface/
exit                    preferences/            switch-to-meshing-mode
file/                   print-license-usage     turbo-workflow/
mesh/                   report/                 views/
parallel/               server/

> /file/import/cgns/mesh  "./project1.cgns"
Engs-30669 has other FLUENT parallel processes running.                       Process affinity not being set.

Importing "./project1.cgns"

Opening library "C:\\PROGRA~1\\ANSYSI~1\\v231\\fluent\\fluent23.1.0\\vki\\win64\\devtools4.4.6.dll"... done.

Read    17864 nodes
   12996 hexahedral cells, zone  1
    9462 quadrilateral wall faces, zone  2.
   33972 quadrilateral interior faces, zone  3.
     282 quadrilateral interface faces, zone  4.
       6 quadrilateral wall faces, zone  5.

Building...
     mesh
     materials,
     interface,
     domains,
     zones,
	default_exterior-1
	interface-default_subface
	default_interior-1
	default_subface
	default
     parallel,
The automatic selection for flux type has changed to Rhie-Chow: momentum based.

Done.


> 
adjoint/                parallel/               server/
define/                 parametric-study/       solve/
display/                plot/                   surface/
exit                    preferences/            turbo-workflow/
file/                   print-license-usage     views/
mesh/                   report/

> /define/models/solver/density-based-implicit yes

> 
adjoint/                parallel/               server/
define/                 parametric-study/       solve/
display/                plot/                   surface/
exit                    preferences/            turbo-workflow/
file/                   print-license-usage     views/
mesh/                   report/

> /define/models/energy? yes yes invalid command [yes]
yes

> /define/models/viscous/inviscid yes

> 
adjoint/                parallel/               server/
define/                 parametric-study/       solve/
display/                plot/                   surface/
exit                    preferences/            turbo-workflow/
file/                   print-license-usage     views/
mesh/                   report/

> /define/materials/change-create air air air is a fluid
yes 
Density
ideal-gas no data required.

no no no no 

> 
adjoint/                parallel/               server/
define/                 parametric-study/       solve/
display/                plot/                   surface/
exit                    preferences/            turbo-workflow/
file/                   print-license-usage     views/
mesh/                   report/

> /mesh/modify-zones/sep-face-zone-angle 2 90 yes

 4332 faces in contiguous region 0
 228 faces in contiguous region 1
 342 faces in contiguous region 2
 4332 faces in contiguous region 3
 228 faces in contiguous region 4
 Separates zone 2 into 5 zone(s).
Updating new zone information...
   created new zone default_subface:010 from default_subface
   created new zone default_subface:009 from default_subface
   created new zone default_subface:008 from default_subface
   created new zone default_subface:007 from default_subface
done.

> 
adjoint/                parallel/               server/
define/                 parametric-study/       solve/
display/                plot/                   surface/
exit                    preferences/            turbo-workflow/
file/                   print-license-usage     views/
mesh/                   report/

> /define/boundary-conditions/zone-name  5   te

> /define/boundary-conditions/zone-name  7 wing

> /define/boundary-conditions/zone-name  2 sym1

> /define/boundary-conditions/zone-name  9 sym2

> 
adjoint/                parallel/               server/
define/                 parametric-study/       solve/
display/                plot/                   surface/
exit                    preferences/            turbo-workflow/
file/                   print-license-usage     views/
mesh/                   report/

> /define/boundary-conditions/zone-name  8 far1

> /define/boundary-conditions/zone-name 10 far2

> 
adjoint/                parallel/               server/
define/                 parametric-study/       solve/
display/                plot/                   surface/
exit                    preferences/            turbo-workflow/
file/                   print-license-usage     views/
mesh/                   report/

> /define/boundary-conditions/zone-type  8 pressure-far-field

> /define/boundary-conditions/zone-type 10 pressure-far-field

> /define/boundary-conditions/zone-type  2 symmetry

> /define/boundary-conditions/zone-type  9 symmetry

> 
adjoint/                parallel/               server/
define/                 parametric-study/       solve/
display/                plot/                   surface/
exit                    preferences/            turbo-workflow/
file/                   print-license-usage     views/
mesh/                   report/

> /define/boundary-conditions/pressure-far-field (far2 far1)
far1 no 0 no 0.1 no 300 yes no 1 no 0 no 0

> /define/boundary-conditions/pressure-far-field (far2 far1)
far2 no 0 no 0.1 no 300 yes no 1 no 0 no 0

> 
adjoint/                parallel/               server/
define/                 parametric-study/       solve/
display/                plot/                   surface/
exit                    preferences/            turbo-workflow/
file/                   print-license-usage     views/
mesh/                   report/

> /solve/initialize/compute-defaults/pressure-far-field (far2 far1)
far1

> /solve/initialize/initialize-flow

> 
adjoint/                parallel/               server/
define/                 parametric-study/       solve/
display/                plot/                   surface/
exit                    preferences/            turbo-workflow/
file/                   print-license-usage     views/
mesh/                   report/

> /solve/monitors/residual/convergence-criteria 1.e-9 1.e-9 1.e-9 1.e-9 1.e-9

> /solve/iterate 2000

  iter  continuity  x-velocity  y-velocity  z-velocity      energy     time/iter
     1  1.0000e+00  1.0000e+00  1.0000e+00  0.0000e+00  1.0000e+00  0:00:00 1999
     2  5.4617e-01  5.9504e-01  3.2665e-01  1.0000e+00  5.4687e-01  0:00:00 1998
     3  2.8974e-01  2.2786e-01  2.5906e-01  8.8639e-01  2.8999e-01  0:00:00 1997
     4  1.8263e-01  1.9630e-01  1.7403e-01  5.8608e-01  1.8270e-01  0:00:00 1996
     5  1.4139e-01  1.4682e-01  1.1398e-01  6.7270e-01  1.4149e-01  0:00:00 1995
     6  1.1827e-01  1.0296e-01  7.9049e-02  8.3716e-01  1.1841e-01  0:00:00 1994
     7  1.0175e-01  7.2525e-02  5.8062e-02  9.0527e-01  1.0192e-01  0:00:00 1993
     8  8.8663e-02  5.4182e-02  4.4189e-02  8.2782e-01  8.8840e-02  0:00:00 1992
     9  7.8490e-02  4.3527e-02  3.4599e-02  7.3521e-01  7.8665e-02  0:33:11 1991
    10  7.0569e-02  3.7763e-02  2.7873e-02  6.7085e-01  7.0737e-02  0:26:32 1990
    11  6.4673e-02  3.5087e-02  2.3010e-02  6.2663e-01  6.4833e-02  0:21:13 1989

  iter  continuity  x-velocity  y-velocity  z-velocity      energy     time/iter
    12  6.0652e-02  3.4173e-02  1.9491e-02  5.9287e-01  6.0804e-02  0:16:58 1988
    13  5.7946e-02  3.4255e-02  1.6993e-02  5.6451e-01  5.8090e-02  0:13:34 1987
    14  5.6503e-02  3.5128e-02  1.5204e-02  5.4544e-01  5.6641e-02  0:10:51 1986
    15  5.6005e-02  3.6489e-02  1.4082e-02  5.2827e-01  5.6138e-02  0:08:40 1985
    16  5.6261e-02  3.8186e-02  1.3484e-02  5.2161e-01  5.6387e-02  0:06:56 1984
    17  5.7077e-02  4.0035e-02  1.3241e-02  5.1764e-01  5.7198e-02  0:05:33 1983
    18  5.8294e-02  4.1881e-02  1.3299e-02  5.1325e-01  5.8407e-02  0:04:26 1982
    19  5.9711e-02  4.3587e-02  1.3654e-02  5.0805e-01  5.9817e-02  0:03:33 1981
    20  6.1137e-02  4.5047e-02  1.4254e-02  5.0311e-01  6.1235e-02  0:02:50 1980
    21  6.2402e-02  4.6144e-02  1.5037e-02  4.9775e-01  6.2490e-02  0:02:16 1979
    22  6.3362e-02  4.6804e-02  1.5932e-02  4.9225e-01  6.3440e-02  0:01:49 1978

  iter  continuity  x-velocity  y-velocity  z-velocity      energy     time/iter
    23  6.3901e-02  4.6983e-02  1.6868e-02  4.8664e-01  6.3968e-02  0:08:02 1977
    24  6.3927e-02  4.6654e-02  1.7780e-02  4.7920e-01  6.3983e-02  0:06:26 1976
    25  6.3376e-02  4.5814e-02  1.8610e-02  4.6880e-01  6.3422e-02  0:05:08 1975
    26  6.2208e-02  4.4454e-02  1.9313e-02  4.5416e-01  6.2243e-02  0:04:07 1974
    27  6.0404e-02  4.2584e-02  1.9848e-02  4.3263e-01  6.0431e-02  0:03:17 1973
    28  5.7969e-02  4.0251e-02  2.0192e-02  4.1155e-01  5.7987e-02  0:02:38 1972
    29  5.4908e-02  3.7441e-02  2.0345e-02  3.9249e-01  5.4918e-02  0:02:06 1971
    30  5.1254e-02  3.4213e-02  2.0281e-02  3.6595e-01  5.1258e-02  0:01:41 1970
    31  4.7056e-02  3.0614e-02  1.9993e-02  3.3809e-01  4.7056e-02  0:01:21 1969
    32  4.2377e-02  2.6726e-02  1.9481e-02  3.1328e-01  4.2374e-02  0:01:04 1968
    33  3.7299e-02  2.2677e-02  1.8760e-02  2.9465e-01  3.7294e-02  0:00:52 1967

  iter  continuity  x-velocity  y-velocity  z-velocity      energy     time/iter
    34  3.1919e-02  1.8664e-02  1.7845e-02  2.8654e-01  3.1914e-02  0:00:41 1966
    35  2.6351e-02  1.4974e-02  1.6766e-02  2.9312e-01  2.6345e-02  0:00:33 1965
    36  2.0750e-02  1.2199e-02  1.5552e-02  3.1480e-01  2.0744e-02  0:00:26 1964
    37  1.5320e-02  1.1128e-02  1.4252e-02  3.4862e-01  1.5312e-02  0:00:21 1963
    38  1.0519e-02  1.2177e-02  1.2903e-02  3.9176e-01  1.0503e-02  0:00:17 1962
    39  7.6045e-03  1.4777e-02  1.1537e-02  4.3834e-01  7.5721e-03  0:00:13 1961
    40  8.4492e-03  1.8121e-02  1.0204e-02  4.8732e-01  8.4057e-03  0:06:43 1960
    41  1.1959e-02  2.1647e-02  8.9689e-03  5.3376e-01  1.1915e-02  0:05:22 1959
    42  1.6174e-02  2.5057e-02  7.8930e-03  5.7366e-01  1.6132e-02  0:04:18 1958
    43  2.0390e-02  2.8216e-02  7.0486e-03  6.0488e-01  2.0349e-02  0:03:26 1957
    44  2.4375e-02  3.1039e-02  6.4989e-03  6.2699e-01  2.4335e-02  0:02:45 1956

  iter  continuity  x-velocity  y-velocity  z-velocity      energy     time/iter
    45  2.7939e-02  3.3445e-02  6.2671e-03  6.4018e-01  2.7899e-02  0:02:12 1955
    46  3.0990e-02  3.5395e-02  6.3547e-03  6.4236e-01  3.0952e-02  0:01:45 1954
    47  3.3504e-02  3.6898e-02  6.6632e-03  6.1074e-01  3.3469e-02  0:01:24 1953
    48  3.5488e-02  3.7936e-02  7.1238e-03  6.0161e-01  3.5456e-02  0:01:07 1952
    49  3.6953e-02  3.8523e-02  7.6425e-03  5.6419e-01  3.6923e-02  0:00:54 1951
    50  3.7916e-02  3.8665e-02  8.1506e-03  5.1901e-01  3.7890e-02  0:00:43 1950
    51  3.8404e-02  3.8405e-02  8.5966e-03  4.6718e-01  3.8382e-02  0:00:34 1949
    52  3.8445e-02  3.7770e-02  8.9616e-03  4.1084e-01  3.8426e-02  0:00:28 1948
    53  3.8072e-02  3.6800e-02  9.2369e-03  3.5470e-01  3.8057e-02  0:00:22 1947
    54  3.7321e-02  3.5539e-02  9.4231e-03  3.0405e-01  3.7309e-02  0:00:18 1946
    55  3.6227e-02  3.4025e-02  9.5192e-03  2.6504e-01  3.6219e-02  0:00:14 1945

  iter  continuity  x-velocity  y-velocity  z-velocity      energy     time/iter
    56  3.4830e-02  3.2296e-02  9.5258e-03  2.4522e-01  3.4824e-02  0:00:11 1944
    57  3.3166e-02  3.0399e-02  9.4472e-03  2.5137e-01  3.3163e-02  0:00:09 1943
    58  3.1274e-02  2.8324e-02  9.2867e-03  2.8222e-01  3.1272e-02  0:06:36 1942
    59  2.9186e-02  2.6137e-02  9.0586e-03  3.2880e-01  2.9186e-02  0:05:16 1941
    60  2.6934e-02  2.3856e-02  8.7705e-03  3.8021e-01  2.6936e-02  0:04:13 1940
    61  2.4555e-02  2.1524e-02  8.4238e-03  4.3072e-01  2.4557e-02  0:03:22 1939
    62  2.2078e-02  1.9215e-02  8.0216e-03  4.7635e-01  2.2081e-02  0:02:42 1938
    63  1.9528e-02  1.6944e-02  7.5803e-03  5.1278e-01  1.9531e-02  0:02:09 1937
    64  1.6939e-02  1.4759e-02  7.1058e-03  5.3779e-01  1.6941e-02  0:01:43 1936
    65  1.4338e-02  1.2720e-02  6.6046e-03  5.5149e-01  1.4340e-02  0:01:23 1935
    66  1.1760e-02  1.0915e-02  6.0830e-03  5.5360e-01  1.1760e-02  0:01:06 1934

  iter  continuity  x-velocity  y-velocity  z-velocity      energy     time/iter
    67  9.2579e-03  9.4406e-03  5.5485e-03  5.4450e-01  9.2571e-03  0:00:53 1933
    68  6.8774e-03  8.4312e-03  5.0149e-03  5.2430e-01  6.8750e-03  0:00:42 1932
    69  4.8024e-03  8.0121e-03  4.4908e-03  5.0038e-01  4.7977e-03  0:00:34 1931
    70  3.5448e-03  8.2327e-03  3.9885e-03  4.6729e-01  3.5383e-03  0:00:27 1930
    71  3.8747e-03  8.9800e-03  3.5275e-03  4.2418e-01  3.8697e-03  0:00:22 1929
    72  5.4006e-03  1.0070e-02  3.1360e-03  3.7659e-01  5.3985e-03  0:00:17 1928
    73  7.3105e-03  1.1339e-02  2.8494e-03  3.2981e-01  7.3104e-03  0:00:14 1927
    74  9.2819e-03  1.2680e-02  2.7019e-03  2.9022e-01  9.2832e-03  0:00:11 1926
    75  1.1198e-02  1.4005e-02  2.7101e-03  2.6722e-01  1.1200e-02  0:06:34 1925
    76  1.3013e-02  1.5275e-02  2.8663e-03  2.7102e-01  1.3016e-02  0:05:15 1924
    77  1.4702e-02  1.6453e-02  3.1375e-03  3.0290e-01  1.4705e-02  0:04:12 1923

  iter  continuity  x-velocity  y-velocity  z-velocity      energy     time/iter
    78  1.6247e-02  1.7508e-02  3.4844e-03  3.5544e-01  1.6250e-02  0:03:21 1922
    79  1.7631e-02  1.8419e-02  3.8735e-03  4.1973e-01  1.7634e-02  0:02:41 1921
    80  1.8839e-02  1.9170e-02  4.2785e-03  4.8722e-01  1.8842e-02  0:02:09 1920
    81  1.9855e-02  1.9747e-02  4.6830e-03  5.5674e-01  1.9857e-02  0:01:43 1919
    82  2.0665e-02  2.0137e-02  5.0708e-03  6.1945e-01  2.0667e-02  0:01:22 1918
    83  2.1261e-02  2.0337e-02  5.4294e-03  6.7256e-01  2.1262e-02  0:01:06 1917
    84  2.1637e-02  2.0345e-02  5.7484e-03  7.1462e-01  2.1637e-02  0:00:53 1916
    85  2.1791e-02  2.0158e-02  6.0214e-03  7.4534e-01  2.1790e-02  0:00:42 1915
    86  2.1721e-02  1.9778e-02  6.2429e-03  7.6484e-01  2.1720e-02  0:00:34 1914
    87  2.1428e-02  1.9218e-02  6.4083e-03  7.7105e-01  2.1426e-02  0:00:27 1913
    88  2.0916e-02  1.8491e-02  6.5118e-03  7.4676e-01  2.0914e-02  0:00:22 1912

  iter  continuity  x-velocity  y-velocity  z-velocity      energy     time/iter
    89  2.0192e-02  1.7609e-02  6.5536e-03  7.4068e-01  2.0189e-02  0:00:17 1911
    90  1.9262e-02  1.6588e-02  6.5330e-03  7.0613e-01  1.9259e-02  0:00:14 1910
    91  1.8137e-02  1.5444e-02  6.4547e-03  6.5684e-01  1.8133e-02  0:00:11 1909
    92  1.6827e-02  1.4217e-02  6.3197e-03  5.9917e-01  1.6823e-02  0:06:30 1908
    93  1.5348e-02  1.2936e-02  6.1307e-03  5.3301e-01  1.5344e-02  0:05:12 1907
    94  1.3721e-02  1.1651e-02  5.8885e-03  4.6243e-01  1.3717e-02  0:04:10 1906
    95  1.1973e-02  1.0432e-02  5.5971e-03  3.9043e-01  1.1970e-02  0:03:20 1905
    96  1.0136e-02  9.3609e-03  5.2621e-03  3.2306e-01  1.0133e-02  0:02:40 1904
    97  8.2511e-03  8.5295e-03  4.8902e-03  2.6980e-01  8.2484e-03  0:02:08 1903
    98  6.3795e-03  8.0354e-03  4.4905e-03  2.4647e-01  6.3770e-03  0:01:42 1902
    99  4.6330e-03  7.9379e-03  4.0736e-03  2.6477e-01  4.6303e-03  0:01:22 1901

  iter  continuity  x-velocity  y-velocity  z-velocity      energy     time/iter
   100  3.2933e-03  8.2278e-03  3.6529e-03  3.1734e-01  3.2892e-03  0:01:05 1900
   101  2.9767e-03  8.8257e-03  3.2427e-03  3.8831e-01  2.9709e-03  0:00:52 1899
   102  3.8719e-03  9.6212e-03  2.8622e-03  4.6737e-01  3.8656e-03  0:00:42 1898
   103  5.3204e-03  1.0510e-02  2.5369e-03  5.4689e-01  5.3141e-03  0:00:33 1897
   104  6.8873e-03  1.1416e-02  2.2941e-03  6.2103e-01  6.8809e-03  0:00:27 1896
   105  8.4280e-03  1.2280e-02  2.1593e-03  6.8617e-01  8.4214e-03  0:00:21 1895
   106  9.8746e-03  1.3058e-02  2.1445e-03  7.4273e-01  9.8679e-03  0:00:17 1894
   107  1.1187e-02  1.3722e-02  2.2390e-03  7.8933e-01  1.1181e-02  0:00:14 1893
   108  1.2341e-02  1.4256e-02  2.4142e-03  8.2453e-01  1.2334e-02  0:06:29 1892
   109  1.3316e-02  1.4646e-02  2.6343e-03  8.4828e-01  1.3310e-02  0:05:11 1891
   110  1.4102e-02  1.4887e-02  2.8745e-03  8.5965e-01  1.4096e-02  0:04:09 1890

  iter  continuity  x-velocity  y-velocity  z-velocity      energy     time/iter
   111  1.4690e-02  1.4979e-02  3.1133e-03  8.5783e-01  1.4685e-02  0:03:19 1889
   112  1.5080e-02  1.4924e-02  3.3335e-03  8.2754e-01  1.5075e-02  0:02:39 1888
   113  1.5274e-02  1.4730e-02  3.5264e-03  7.9117e-01  1.5270e-02  0:02:07 1887
   114  1.5268e-02  1.4404e-02  3.6911e-03  7.7724e-01  1.5264e-02  0:01:42 1886
   115  1.5071e-02  1.3958e-02  3.8192e-03  7.4832e-01  1.5068e-02  0:01:21 1885
   116  1.4698e-02  1.3408e-02  3.9076e-03  7.1077e-01  1.4696e-02  0:01:05 1884
   117  1.4164e-02  1.2765e-02  3.9547e-03  6.5912e-01  1.4162e-02  0:00:52 1883
   118  1.3487e-02  1.2046e-02  3.9603e-03  5.9973e-01  1.3485e-02  0:00:42 1882
   119  1.2684e-02  1.1266e-02  3.9272e-03  5.3413e-01  1.2683e-02  0:00:33 1881
   120  1.1765e-02  1.0441e-02  3.8584e-03  4.6449e-01  1.1764e-02  0:00:27 1880
   121  1.0748e-02  9.5928e-03  3.7551e-03  3.9276e-01  1.0747e-02  0:00:21 1879

  iter  continuity  x-velocity  y-velocity  z-velocity      energy     time/iter
   122  9.6517e-03  8.7423e-03  3.6194e-03  3.2098e-01  9.6513e-03  0:00:17 1878
   123  8.4969e-03  7.9144e-03  3.4540e-03  2.5117e-01  8.4965e-03  0:00:14 1877
   124  7.3055e-03  7.1363e-03  3.2625e-03  1.8594e-01  7.3051e-03  0:00:11 1876
   125  6.1010e-03  6.4350e-03  3.0486e-03  1.3377e-01  6.1004e-03  0:00:09 1875
   126  4.9105e-03  5.8446e-03  2.8172e-03  1.1366e-01  4.9095e-03  0:06:22 1874
   127  3.7735e-03  5.4049e-03  2.5729e-03  1.3731e-01  3.7720e-03  0:05:05 1873
   128  2.7615e-03  5.1397e-03  2.3212e-03  1.8483e-01  2.7591e-03  0:04:04 1872
   129  2.0352e-03  5.0583e-03  2.0691e-03  2.3954e-01  2.0316e-03  0:03:15 1871
   130  1.8938e-03  5.1444e-03  1.8248e-03  2.9382e-01  1.8897e-03  0:02:36 1870
   131  2.3644e-03  5.3604e-03  1.5988e-03  3.4386e-01  2.3610e-03  0:02:05 1869
   132  3.1178e-03  5.6652e-03  1.4046e-03  3.8935e-01  3.1152e-03  0:01:40 1868

  iter  continuity  x-velocity  y-velocity  z-velocity      energy     time/iter
   133  3.9372e-03  6.0195e-03  1.2584e-03  4.2914e-01  3.9352e-03  0:01:20 1867
   134  4.7370e-03  6.3909e-03  1.1760e-03  4.6461e-01  4.7353e-03  0:01:04 1866
   135  5.4808e-03  6.7541e-03  1.1653e-03  4.9484e-01  5.4794e-03  0:00:51 1865
   136  6.1503e-03  7.0916e-03  1.2204e-03  5.1988e-01  6.1491e-03  0:00:41 1864
   137  6.7351e-03  7.3902e-03  1.3242e-03  5.3744e-01  6.7340e-03  0:00:33 1863
   138  7.2290e-03  7.6401e-03  1.4571e-03  5.5062e-01  7.2279e-03  0:00:26 1862
   139  7.6275e-03  7.8344e-03  1.6009e-03  5.5515e-01  7.6265e-03  0:00:21 1861
   140  7.9301e-03  7.9704e-03  1.7451e-03  5.5107e-01  7.9291e-03  0:00:17 1860
   141  8.1380e-03  8.0486e-03  1.8811e-03  5.5892e-01  8.1370e-03  0:00:13 1859
   142  8.2528e-03  8.0690e-03  2.0035e-03  5.5305e-01  8.2519e-03  0:00:11 1858
   143  8.2771e-03  8.0324e-03  2.1090e-03  5.3822e-01  8.2762e-03  0:06:20 1857

  iter  continuity  x-velocity  y-velocity  z-velocity      energy     time/iter
   144  8.2143e-03  7.9421e-03  2.1950e-03  5.2293e-01  8.2133e-03  0:05:04 1856
   145  8.0684e-03  7.8008e-03  2.2598e-03  5.0548e-01  8.0675e-03  0:04:03 1855
   146  7.8448e-03  7.6157e-03  2.3027e-03  4.8528e-01  7.8439e-03  0:03:14 1854
   147  7.5492e-03  7.3928e-03  2.3234e-03  4.6132e-01  7.5483e-03  0:02:35 1853
   148  7.1879e-03  7.1389e-03  2.3215e-03  4.3507e-01  7.1871e-03  0:02:04 1852
   149  6.7681e-03  6.8623e-03  2.2976e-03  4.0728e-01  6.7673e-03  0:01:39 1851
   150  6.2968e-03  6.5715e-03  2.2528e-03  3.7672e-01  6.2961e-03  0:01:19 1850
   151  5.7798e-03  6.2680e-03  2.1883e-03  3.4326e-01  5.7792e-03  0:01:03 1849
   152  5.2276e-03  5.9750e-03  2.1054e-03  3.0526e-01  5.2271e-03  0:00:51 1848
   153  4.6486e-03  5.7013e-03  2.0058e-03  2.7057e-01  4.6482e-03  0:00:41 1847
   154  4.0516e-03  5.4569e-03  1.8923e-03  2.4347e-01  4.0513e-03  0:00:32 1846

  iter  continuity  x-velocity  y-velocity  z-velocity      energy     time/iter
   155  3.4461e-03  5.2509e-03  1.7671e-03  2.2974e-01  3.4459e-03  0:00:26 1845
   156  2.8439e-03  5.0945e-03  1.6326e-03  2.0916e-01  2.8439e-03  0:00:21 1844
   157  2.2611e-03  4.9908e-03  1.4915e-03  2.1139e-01  2.2611e-03  0:00:17 1843
   158  1.7254e-03  4.9420e-03  1.3472e-03  2.3242e-01  1.7253e-03  0:00:13 1842
   159  1.2947e-03  4.9469e-03  1.2031e-03  2.6239e-01  1.2944e-03  0:00:11 1841
   160  1.0841e-03  4.9995e-03  1.0636e-03  2.5110e-01  1.0833e-03  0:06:16 1840
   161  1.1882e-03  5.0928e-03  9.3417e-04  2.5216e-01  1.1869e-03  0:05:01 1839
   162  1.5172e-03  5.2168e-03  8.2164e-04  3.0619e-01  1.5158e-03  0:04:01 1838
   163  1.9352e-03  5.3600e-03  7.3422e-04  3.1433e-01  1.9337e-03  0:03:12 1837
   164  2.3722e-03  5.5121e-03  6.8068e-04  3.0805e-01  2.3706e-03  0:02:34 1836
   165  2.7981e-03  5.6654e-03  6.6650e-04  3.1565e-01  2.7965e-03  0:02:03 1835

  iter  continuity  x-velocity  y-velocity  z-velocity      energy     time/iter
   166  3.1984e-03  5.8117e-03  6.8948e-04  3.3794e-01  3.1967e-03  0:01:38 1834
   167  3.5636e-03  5.9432e-03  7.4108e-04  3.5810e-01  3.5619e-03  0:01:19 1833
   168  3.8898e-03  6.0538e-03  8.1117e-04  3.7213e-01  3.8881e-03  0:01:03 1832
   169  4.1743e-03  6.1397e-03  8.9009e-04  3.7625e-01  4.1726e-03  0:00:50 1831
   170  4.4146e-03  6.1985e-03  9.7135e-04  3.6996e-01  4.4130e-03  0:00:40 1830
   171  4.6088e-03  6.2270e-03  1.0495e-03  3.7118e-01  4.6072e-03  0:06:38 1829
   172  4.7557e-03  6.2242e-03  1.1219e-03  3.6581e-01  4.7542e-03  0:05:18 1828
   173  4.8548e-03  6.1916e-03  1.1868e-03  3.6296e-01  4.8533e-03  0:04:14 1827
   174  4.9061e-03  6.1267e-03  1.2421e-03  3.6401e-01  4.9047e-03  0:03:23 1826
   175  4.9098e-03  6.0322e-03  1.2868e-03  3.5917e-01  4.9085e-03  0:02:43 1825
   176  4.8668e-03  5.9081e-03  1.3203e-03  3.5377e-01  4.8655e-03  0:02:10 1824

  iter  continuity  x-velocity  y-velocity  z-velocity      energy     time/iter
   177  4.7782e-03  5.7597e-03  1.3422e-03  3.4791e-01  4.7770e-03  0:01:44 1823
   178  4.6456e-03  5.5900e-03  1.3523e-03  3.4207e-01  4.6445e-03  0:01:23 1822
   179  4.4709e-03  5.4025e-03  1.3505e-03  3.3735e-01  4.4699e-03  0:01:06 1821
   180  4.2563e-03  5.2030e-03  1.3373e-03  3.3197e-01  4.2554e-03  0:00:53 1820
   181  4.0045e-03  4.9935e-03  1.3130e-03  3.2348e-01  4.0036e-03  0:06:46 1819
   182  3.7184e-03  4.7815e-03  1.2781e-03  3.1111e-01  3.7176e-03  0:05:25 1818
   183  3.4014e-03  4.5685e-03  1.2334e-03  2.9569e-01  3.4007e-03  0:04:20 1817
   184  3.0595e-03  4.3771e-03  1.1795e-03  2.7882e-01  3.0589e-03  0:03:28 1816
   185  2.6968e-03  4.2091e-03  1.1175e-03  2.6379e-01  2.6962e-03  0:02:46 1815
   186  2.3183e-03  4.0717e-03  1.0485e-03  2.4958e-01  2.3178e-03  0:02:13 1814
   187  1.9345e-03  3.9730e-03  9.7355e-04  2.3779e-01  1.9340e-03  0:01:46 1813

  iter  continuity  x-velocity  y-velocity  z-velocity      energy     time/iter
   188  1.5582e-03  3.9174e-03  8.9506e-04  2.3071e-01  1.5578e-03  0:01:25 1812
   189  1.2105e-03  3.9024e-03  8.1505e-04  2.2514e-01  1.2103e-03  0:01:08 1811
   190  9.3555e-04  3.9259e-03  7.3595e-04  2.1726e-01  9.3547e-04  0:00:54 1810
   191  8.1365e-04  3.9813e-03  6.6099e-04  2.0644e-01  8.1378e-04  0:00:43 1809
   192  9.0123e-04  4.0649e-03  5.9444e-04  2.0145e-01  9.0153e-04  0:06:36 1808
   193  1.1411e-03  4.1718e-03  5.4117e-04  2.1482e-01  1.1415e-03  0:05:17 1807
   194  1.4446e-03  4.2901e-03  5.0531e-04  2.2528e-01  1.4449e-03  0:04:13 1806
   195  1.7636e-03  4.4115e-03  4.9121e-04  2.4463e-01  1.7639e-03  0:03:23 1805
   196  2.0755e-03  4.5266e-03  4.9989e-04  2.5781e-01  2.0757e-03  0:02:42 1804
   197  2.3684e-03  4.6342e-03  5.2796e-04  2.6220e-01  2.3685e-03  0:02:09 1803
   198  2.6347e-03  4.7290e-03  5.7042e-04  2.6095e-01  2.6348e-03  0:01:44 1802

  iter  continuity  x-velocity  y-velocity  z-velocity      energy     time/iter
   199  2.8694e-03  4.8058e-03  6.2177e-04  2.7220e-01  2.8694e-03  0:01:23 1801
   200  3.0685e-03  4.8603e-03  6.7667e-04  2.8354e-01  3.0685e-03  0:01:06 1800
   201  3.2295e-03  4.8920e-03  7.3128e-04  2.9886e-01  3.2294e-03  0:00:53 1799
   202  3.3504e-03  4.8994e-03  7.8314e-04  2.9309e-01  3.3502e-03  0:06:42 1798
   203  3.4301e-03  4.8830e-03  8.2998e-04  2.9433e-01  3.4299e-03  0:05:21 1797
   204  3.4682e-03  4.8432e-03  8.7032e-04  2.9616e-01  3.4680e-03  0:04:17 1796
   205  3.4650e-03  4.7818e-03  9.0316e-04  2.8819e-01  3.4648e-03  0:03:25 1795
   206  3.4215e-03  4.7004e-03  9.2768e-04  2.8572e-01  3.4211e-03  0:02:44 1794
   207  3.3389e-03  4.6019e-03  9.4348e-04  2.8806e-01  3.3385e-03  0:02:11 1793
   208  3.2193e-03  4.4893e-03  9.5048e-04  2.9143e-01  3.2189e-03  0:01:45 1792
   209  3.0651e-03  4.3663e-03  9.4847e-04  2.9099e-01  3.0647e-03  0:01:24 1791

  iter  continuity  x-velocity  y-velocity  z-velocity      energy     time/iter
   210  2.8793e-03  4.2357e-03  9.3736e-04  2.9125e-01  2.8788e-03  0:01:07 1790
   211  2.6655e-03  4.1044e-03  9.1761e-04  2.8791e-01  2.6649e-03  0:00:54 1789
   212  2.4277e-03  3.9774e-03  8.8996e-04  2.8612e-01  2.4270e-03  0:06:41 1788
   213  2.1702e-03  3.8588e-03  8.5495e-04  2.7661e-01  2.1695e-03  0:05:20 1787
   214  1.8982e-03  3.7523e-03  8.1332e-04  2.6352e-01  1.8974e-03  0:04:16 1786
   215  1.6176e-03  3.6615e-03  7.6600e-04  2.4686e-01  1.6166e-03  0:03:25 1785
   216  1.3369e-03  3.5898e-03  7.1429e-04  2.4186e-01  1.3357e-03  0:02:44 1784
   217  1.0642e-03  3.5283e-03  6.5902e-04  2.3300e-01  1.0626e-03  0:02:11 1783
   218  8.2177e-04  3.4830e-03  6.0260e-04  2.3495e-01  8.1958e-04  0:01:45 1782
   219  6.5442e-04  3.4658e-03  5.4497e-04  2.3527e-01  6.5148e-04  0:01:24 1781
   220  6.1786e-04  3.4679e-03  4.9060e-04  2.3968e-01  6.1453e-04  0:01:07 1780

  iter  continuity  x-velocity  y-velocity  z-velocity      energy     time/iter
   221  7.2120e-04  3.4826e-03  4.4193e-04  2.4483e-01  7.1814e-04  0:00:53 1779
   222  9.0865e-04  3.5124e-03  4.0159e-04  2.5172e-01  9.0606e-04  0:06:38 1778
   223  1.1268e-03  3.5521e-03  3.7242e-04  2.5930e-01  1.1245e-03  0:05:19 1777
   224  1.3482e-03  3.5939e-03  3.5819e-04  2.9303e-01  1.3462e-03  0:04:15 1776
   225  1.5596e-03  3.6329e-03  3.6049e-04  3.1081e-01  1.5578e-03  0:03:24 1775
   226  1.7545e-03  3.6687e-03  3.7744e-04  3.2308e-01  1.7529e-03  0:02:43 1774
   227  1.9286e-03  3.6998e-03  4.0306e-04  3.3186e-01  1.9271e-03  0:02:10 1773
   228  2.0785e-03  3.7239e-03  4.3457e-04  3.4023e-01  2.0772e-03  0:01:44 1772
   229  2.2024e-03  3.7386e-03  4.7035e-04  3.4058e-01  2.2011e-03  0:01:23 1771
   230  2.2987e-03  3.7435e-03  5.0667e-04  3.3299e-01  2.2975e-03  0:01:07 1770
   231  2.3665e-03  3.7387e-03  5.4066e-04  3.2282e-01  2.3654e-03  0:00:53 1769

  iter  continuity  x-velocity  y-velocity  z-velocity      energy     time/iter
   232  2.4053e-03  3.7245e-03  5.7196e-04  3.1259e-01  2.4043e-03  0:06:36 1768
   233  2.4153e-03  3.7016e-03  5.9893e-04  3.0342e-01  2.4144e-03  0:05:17 1767
   234  2.3968e-03  3.6699e-03  6.2067e-04  3.0611e-01  2.3960e-03  0:04:13 1766
   235  2.3508e-03  3.6331e-03  6.3688e-04  3.1247e-01  2.3501e-03  0:03:22 1765
   236  2.2782e-03  3.5928e-03  6.4703e-04  3.2096e-01  2.2776e-03  0:02:42 1764
   237  2.1806e-03  3.5507e-03  6.5119e-04  3.3991e-01  2.1801e-03  0:02:09 1763
   238  2.0598e-03  3.5090e-03  6.4971e-04  3.7139e-01  2.0595e-03  0:01:43 1762
   239  1.9179e-03  3.4708e-03  6.4148e-04  4.1233e-01  1.9177e-03  0:01:23 1761
   240  1.7574e-03  3.4401e-03  6.2792e-04  4.4494e-01  1.7574e-03  0:06:58 1760
   241  1.5814e-03  3.4168e-03  6.0899e-04  4.6873e-01  1.5816e-03  0:05:34 1759
   242  1.3929e-03  3.3990e-03  5.8419e-04  4.7214e-01  1.3932e-03  0:04:27 1758

  iter  continuity  x-velocity  y-velocity  z-velocity      energy     time/iter
   243  1.1958e-03  3.3883e-03  5.5562e-04  4.5668e-01  1.1964e-03  0:03:34 1757
   244  9.9610e-04  3.3874e-03  5.2421e-04  4.3046e-01  9.9690e-04  0:02:51 1756
   245  8.0193e-04  3.3968e-03  4.8931e-04  4.0410e-01  8.0308e-04  0:02:17 1755
   246  6.2776e-04  3.4166e-03  4.5296e-04  3.8641e-01  6.2938e-04  0:01:49 1754
   247  5.0110e-04  3.4450e-03  4.1640e-04  3.6124e-01  5.0326e-04  0:01:27 1753
   248  4.6371e-04  3.4800e-03  3.8127e-04  3.3739e-01  4.6612e-04  0:01:10 1752
   249  5.2976e-04  3.5190e-03  3.4839e-04  3.2735e-01  5.3185e-04  0:00:56 1751
   250  6.6246e-04  3.5590e-03  3.2073e-04  3.3383e-01  6.6406e-04  0:06:35 1750
   251  8.2173e-04  3.5964e-03  3.0066e-04  3.3487e-01  8.2295e-04  0:05:16 1749
   252  9.8682e-04  3.6325e-03  2.8993e-04  3.4454e-01  9.8775e-04  0:04:12 1748
   253  1.1464e-03  3.6640e-03  2.8915e-04  3.4027e-01  1.1471e-03  0:03:22 1747

  iter  continuity  x-velocity  y-velocity  z-velocity      energy     time/iter
   254  1.2939e-03  3.6863e-03  2.9764e-04  3.2174e-01  1.2944e-03  0:02:41 1746
   255  1.4258e-03  3.7036e-03  3.1352e-04  3.2479e-01  1.4262e-03  0:02:09 1745
   256  1.5393e-03  3.7121e-03  3.3436e-04  3.5350e-01  1.5396e-03  0:01:43 1744
   257  1.6308e-03  3.6967e-03  3.5689e-04  3.9276e-01  1.6310e-03  0:01:22 1743
   258  1.7030e-03  3.6816e-03  3.8096e-04  4.2358e-01  1.7031e-03  0:01:06 1742
   259  1.7530e-03  3.6621e-03  4.0366e-04  4.3895e-01  1.7530e-03  0:06:41 1741
   260  1.7795e-03  3.6346e-03  4.2454e-04  4.4597e-01  1.7795e-03  0:05:21 1740
   261  1.7828e-03  3.6025e-03  4.4294e-04  4.4827e-01  1.7827e-03  0:04:16 1739
   262  1.7638e-03  3.5629e-03  4.5764e-04  4.5288e-01  1.7636e-03  0:03:25 1738
   263  1.7225e-03  3.5133e-03  4.6798e-04  4.6004e-01  1.7223e-03  0:02:44 1737
   264  1.6602e-03  3.4559e-03  4.7408e-04  4.7181e-01  1.6599e-03  0:02:11 1736

  iter  continuity  x-velocity  y-velocity  z-velocity      energy     time/iter
   265  1.5782e-03  3.3928e-03  4.7498e-04  4.8208e-01  1.5778e-03  0:01:45 1735
   266  1.4783e-03  3.3278e-03  4.7146e-04  4.9588e-01  1.4778e-03  0:01:24 1734
   267  1.3625e-03  3.2634e-03  4.6366e-04  5.2270e-01  1.3619e-03  0:01:07 1733
   268  1.2329e-03  3.2013e-03  4.5228e-04  5.6412e-01  1.2322e-03  0:00:54 1732
   269  1.0920e-03  3.1438e-03  4.3709e-04  6.1216e-01  1.0912e-03  0:06:29 1731
   270  9.4277e-04  3.0921e-03  4.1835e-04  6.6208e-01  9.4174e-04  0:05:11 1730
   271  7.8875e-04  3.0471e-03  3.9651e-04  7.1862e-01  7.8747e-04  0:04:09 1729
   272  6.3504e-04  3.0082e-03  3.7236e-04  7.9347e-01  6.3340e-04  0:03:19 1728
   273  4.9005e-04  2.9773e-03  3.4680e-04  8.6288e-01  4.8787e-04  0:02:39 1727
   274  3.7011e-04  2.9560e-03  3.2055e-04  8.9800e-01  3.6712e-04  0:02:07 1726
   275  3.0781e-04  2.9429e-03  2.9426e-04  9.1089e-01  3.0410e-04  0:01:42 1725

  iter  continuity  x-velocity  y-velocity  z-velocity      energy     time/iter
   276  3.3328e-04  2.9358e-03  2.7016e-04  8.9294e-01  3.2976e-04  0:01:21 1724
   277  4.2657e-04  2.9355e-03  2.4942e-04  8.5264e-01  4.2376e-04  0:01:05 1723
   278  5.4770e-04  2.9402e-03  2.3359e-04  8.2111e-01  5.4548e-04  0:06:36 1722
   279  6.7488e-04  2.9483e-03  2.2360e-04  8.4114e-01  6.7305e-04  0:05:17 1721
   280  7.9849e-04  2.9584e-03  2.2030e-04  9.3818e-01  7.9693e-04  0:04:13 1720
   281  9.1362e-04  2.9688e-03  2.2379e-04  1.0943e+00  9.1226e-04  0:03:23 1719
   282  1.0173e-03  2.9788e-03  2.3308e-04  1.2986e+00  1.0161e-03  0:02:42 1718
   283  1.1077e-03  2.9876e-03  2.4622e-04  1.5192e+00  1.1066e-03  0:02:09 1717
   284  1.1835e-03  2.9947e-03  2.6073e-04  1.7347e+00  1.1825e-03  0:01:44 1716
   285  1.2438e-03  2.9993e-03  2.7826e-04  1.9020e+00  1.2429e-03  0:01:23 1715
   286  1.2877e-03  3.0000e-03  2.9539e-04  2.0310e+00  1.2869e-03  0:01:06 1714

  iter  continuity  x-velocity  y-velocity  z-velocity      energy     time/iter
   287  1.3156e-03  2.9988e-03  3.1164e-04  2.1131e+00  1.3148e-03  0:00:53 1713
   288  1.3270e-03  2.9952e-03  3.2571e-04  2.1424e+00  1.3264e-03  0:06:25 1712
   289  1.3221e-03  2.9855e-03  3.3771e-04  2.1484e+00  1.3215e-03  0:05:08 1711
   290  1.3016e-03  2.9744e-03  3.4671e-04  2.1579e+00  1.3011e-03  0:04:06 1710
   291  1.2662e-03  2.9660e-03  3.5313e-04  2.1880e+00  1.2658e-03  0:03:17 1709
   292  1.2166e-03  2.9573e-03  3.5639e-04  2.2258e+00  1.2163e-03  0:02:37 1708
   293  1.1538e-03  2.9475e-03  3.5642e-04  2.2534e+00  1.1537e-03  0:02:06 1707
   294  1.0791e-03  2.9383e-03  3.5334e-04  2.2657e+00  1.0791e-03  0:01:40 1706
   295  9.9373e-04  2.9312e-03  3.4761e-04  2.2719e+00  9.9379e-04  0:01:20 1705
   296  8.9908e-04  2.9261e-03  3.3967e-04  2.2624e+00  8.9929e-04  0:01:04 1704
   297  7.9701e-04  2.9243e-03  3.2868e-04  2.2343e+00  7.9739e-04  0:06:32 1703

  iter  continuity  x-velocity  y-velocity  z-velocity      energy     time/iter
   298  6.8941e-04  2.9255e-03  3.1471e-04  2.1858e+00  6.8997e-04  0:05:13 1702
   299  5.7871e-04  2.9298e-03  2.9951e-04  2.1289e+00  5.7950e-04  0:04:11 1701
   300  4.6788e-04  2.9378e-03  2.8327e-04  2.0684e+00  4.6897e-04  0:03:20 1700
   301  3.6193e-04  2.9502e-03  2.6636e-04  2.0033e+00  3.6346e-04  0:02:40 1699
   302  2.6910e-04  2.9664e-03  2.4916e-04  1.9238e+00  2.7122e-04  0:02:08 1698
   303  2.1371e-04  2.9860e-03  2.3152e-04  1.8378e+00  2.1635e-04  0:01:42 1697
   304  2.2342e-04  3.0066e-03  2.1660e-04  1.7756e+00  2.2589e-04  0:01:22 1696
   305  2.8499e-04  3.0265e-03  2.0469e-04  1.7531e+00  2.8689e-04  0:01:05 1695
   306  3.6911e-04  3.0456e-03  1.9595e-04  1.7251e+00  3.7053e-04  0:00:52 1694
   307  4.5940e-04  3.0633e-03  1.9036e-04  1.7061e+00  4.6048e-04  0:06:20 1693
   308  5.4851e-04  3.0790e-03  1.8841e-04  1.7031e+00  5.4934e-04  0:05:04 1692

  iter  continuity  x-velocity  y-velocity  z-velocity      energy     time/iter
   309  6.3264e-04  3.0917e-03  1.9038e-04  1.7200e+00  6.3329e-04  0:04:03 1691
   310  7.0952e-04  3.1008e-03  1.9652e-04  1.7476e+00  7.1002e-04  0:03:14 1690
   311  7.7784e-04  3.1057e-03  2.0479e-04  1.7793e+00  7.7822e-04  0:02:35 1689
   312  8.3661e-04  3.1069e-03  2.1534e-04  1.7854e+00  8.3688e-04  0:02:04 1688
   313  8.8512e-04  3.1033e-03  2.2631e-04  1.7542e+00  8.8530e-04  0:01:39 1687
   314  9.2280e-04  3.0944e-03  2.3721e-04  1.7071e+00  9.2291e-04  0:01:19 1686
   315  9.4899e-04  3.0844e-03  2.4679e-04  1.6570e+00  9.4903e-04  0:01:04 1685
   316  9.6381e-04  3.0725e-03  2.5604e-04  1.6190e+00  9.6379e-04  0:06:28 1684
   317  9.6735e-04  3.0576e-03  2.6470e-04  1.6196e+00  9.6729e-04  0:05:10 1683
   318  9.5964e-04  3.0367e-03  2.7078e-04  1.6619e+00  9.5954e-04  0:04:08 1682
   319  9.4096e-04  3.0103e-03  2.7491e-04  1.7495e+00  9.4082e-04  0:03:18 1681

  iter  continuity  x-velocity  y-velocity  z-velocity      energy     time/iter
   320  9.1186e-04  2.9813e-03  2.7750e-04  1.8636e+00  9.1167e-04  0:02:38 1680
   321  8.7283e-04  2.9510e-03  2.7776e-04  2.0066e+00  8.7260e-04  0:02:07 1679
   322  8.2458e-04  2.9202e-03  2.7580e-04  2.1821e+00  8.2430e-04  0:01:41 1678
   323  7.6765e-04  2.8881e-03  2.6965e-04  2.3834e+00  7.6732e-04  0:01:21 1677
   324  7.0434e-04  2.8584e-03  2.6404e-04  2.5942e+00  7.0395e-04  0:01:05 1676
   325  6.3443e-04  2.8277e-03  2.5668e-04  2.7883e+00  6.3399e-04  0:00:52 1675
   326  5.5898e-04  2.8011e-03  2.4786e-04  2.9545e+00  5.5847e-04  0:06:16 1674
   327  4.7969e-04  2.7820e-03  2.3716e-04  3.0774e+00  4.7911e-04  0:05:01 1673
   328  3.9857e-04  2.7686e-03  2.2527e-04  3.1553e+00  3.9788e-04  0:04:00 1672
   329  3.1741e-04  2.7590e-03  2.1393e-04  3.1927e+00  3.1656e-04  0:03:12 1671
   330  2.4205e-04  2.7545e-03  2.0083e-04  3.2050e+00  2.4095e-04  0:02:34 1670

  iter  continuity  x-velocity  y-velocity  z-velocity      energy     time/iter
   331  1.8164e-04  2.7532e-03  1.8705e-04  3.2022e+00  1.8021e-04  0:02:03 1669
   332  1.5298e-04  2.7498e-03  1.7543e-04  3.1821e+00  1.5134e-04  0:01:38 1668
   333  1.7276e-04  2.7489e-03  1.6505e-04  3.1460e+00  1.7139e-04  0:01:19 1667
   334  2.2602e-04  2.7511e-03  1.5652e-04  3.1140e+00  2.2504e-04  0:01:03 1666
   335  2.9170e-04  2.7544e-03  1.5067e-04  3.0873e+00  2.9098e-04  0:00:50 1665
   336  3.5984e-04  2.7631e-03  1.4859e-04  3.0718e+00  3.5932e-04  0:06:13 1664
   337  4.2561e-04  2.7704e-03  1.4773e-04  3.0676e+00  4.2521e-04  0:04:58 1663
   338  4.8674e-04  2.7751e-03  1.4963e-04  3.0725e+00  4.8641e-04  0:03:58 1662
   339  5.4214e-04  2.7790e-03  1.5438e-04  3.0738e+00  5.4186e-04  0:03:11 1661
   340  5.9056e-04  2.7799e-03  1.5761e-04  3.0530e+00  5.9034e-04  0:02:32 1660
   341  6.3181e-04  2.7803e-03  1.6690e-04  2.9791e+00  6.3163e-04  0:02:02 1659

  iter  continuity  x-velocity  y-velocity  z-velocity      energy     time/iter
   342  6.6474e-04  2.7769e-03  1.7709e-04  2.8481e+00  6.6459e-04  0:01:37 1658
   343  6.8906e-04  2.7705e-03  1.8448e-04  2.6698e+00  6.8892e-04  0:01:18 1657
   344  7.0560e-04  2.7611e-03  1.9216e-04  2.4689e+00  7.0546e-04  0:06:33 1656
   345  7.1367e-04  2.7494e-03  1.9854e-04  2.2626e+00  7.1355e-04  0:05:15 1655
   346  7.1341e-04  2.7371e-03  2.0386e-04  2.0456e+00  7.1332e-04  0:04:12 1654
   347  7.0482e-04  2.7278e-03  2.0916e-04  1.8130e+00  7.0475e-04  0:03:21 1653
   348  6.8891e-04  2.7218e-03  2.1272e-04  1.6076e+00  6.8885e-04  0:02:41 1652
   349  6.6569e-04  2.7178e-03  2.1342e-04  1.4601e+00  6.6564e-04  0:02:09 1651
   350  6.3562e-04  2.7161e-03  2.1247e-04  1.3720e+00  6.3558e-04  0:01:43 1650
   351  6.0009e-04  2.7171e-03  2.0898e-04  1.3249e+00  6.0008e-04  0:01:22 1649
   352  5.5778e-04  2.7148e-03  2.0633e-04  1.2934e+00  5.5780e-04  0:01:06 1648

  iter  continuity  x-velocity  y-velocity  z-velocity      energy     time/iter
   353  5.0989e-04  2.7103e-03  2.0262e-04  1.2753e+00  5.0993e-04  0:00:53 1647
   354  4.5807e-04  2.7101e-03  1.9701e-04  1.2719e+00  4.5811e-04  0:06:11 1646
   355  4.0289e-04  2.7099e-03  1.9007e-04  1.2819e+00  4.0292e-04  0:04:57 1645
   356  3.4536e-04  2.7074e-03  1.8222e-04  1.3156e+00  3.4537e-04  0:03:57 1644
   357  2.8747e-04  2.7026e-03  1.7317e-04  1.3681e+00  2.8746e-04  0:03:10 1643
   358  2.3068e-04  2.6948e-03  1.6396e-04  1.3964e+00  2.3061e-04  0:02:32 1642
   359  1.7918e-04  2.6866e-03  1.5339e-04  1.3727e+00  1.7899e-04  0:02:01 1641
   360  1.4168e-04  2.6776e-03  1.4144e-04  1.3145e+00  1.4132e-04  0:01:37 1640
   361  1.2687e-04  2.6699e-03  1.3187e-04  1.2397e+00  1.2634e-04  0:01:18 1639
   362  1.3927e-04  2.6609e-03  1.2473e-04  1.1627e+00  1.3862e-04  0:01:02 1638
   363  1.7137e-04  2.6452e-03  1.1928e-04  1.1055e+00  1.7069e-04  0:00:50 1637

  iter  continuity  x-velocity  y-velocity  z-velocity      energy     time/iter
   364  2.1380e-04  2.6242e-03  1.1348e-04  1.0838e+00  2.1313e-04  0:06:07 1636
   365  2.5930e-04  2.6013e-03  1.0857e-04  1.0968e+00  2.5868e-04  0:04:53 1635
   366  3.0411e-04  2.5710e-03  1.0591e-04  1.0856e+00  3.0353e-04  0:03:54 1634
   367  3.4645e-04  2.5403e-03  1.0568e-04  1.0855e+00  3.4585e-04  0:03:07 1633
   368  3.8466e-04  2.5130e-03  1.0852e-04  1.0958e+00  3.8405e-04  0:02:30 1632
   369  4.1799e-04  2.4879e-03  1.1323e-04  1.1267e+00  4.1740e-04  0:02:00 1631
   370  4.4618e-04  2.4660e-03  1.1869e-04  1.1817e+00  4.4561e-04  0:01:36 1630
   371  4.6890e-04  2.4458e-03  1.2439e-04  1.2599e+00  4.6833e-04  0:01:17 1629
   372  4.8570e-04  2.4252e-03  1.2747e-04  1.3557e+00  4.8516e-04  0:01:01 1628
   373  4.9683e-04  2.4056e-03  1.3244e-04  1.4595e+00  4.9632e-04  0:00:49 1627
   374  5.0235e-04  2.3874e-03  1.3732e-04  1.5843e+00  5.0186e-04  0:06:04 1626

  iter  continuity  x-velocity  y-velocity  z-velocity      energy     time/iter
   375  5.0233e-04  2.3709e-03  1.4144e-04  1.7381e+00  5.0185e-04  0:04:51 1625
   376  4.9675e-04  2.3548e-03  1.4480e-04  1.9105e+00  4.9626e-04  0:03:53 1624
   377  4.8579e-04  2.3386e-03  1.4749e-04  2.0668e+00  4.8530e-04  0:03:06 1623
   378  4.6949e-04  2.3198e-03  1.4975e-04  2.1831e+00  4.6898e-04  0:02:29 1622
   379  4.4894e-04  2.3042e-03  1.5182e-04  2.2636e+00  4.4841e-04  0:01:59 1621
   380  4.2455e-04  2.2907e-03  1.4420e-04  2.3174e+00  4.2409e-04  0:01:35 1620
   381  3.9469e-04  2.2622e-03  1.4307e-04  2.3571e+00  3.9423e-04  0:01:16 1619
   382  3.6198e-04  2.2344e-03  1.3937e-04  2.3803e+00  3.6155e-04  0:01:01 1618
   383  3.2559e-04  2.2117e-03  1.3342e-04  2.3628e+00  3.2519e-04  0:00:49 1617
   384  2.8536e-04  2.1843e-03  1.2807e-04  2.3027e+00  2.8498e-04  0:06:02 1616
   385  2.4426e-04  2.1565e-03  1.2265e-04  2.2213e+00  2.4387e-04  0:04:49 1615

  iter  continuity  x-velocity  y-velocity  z-velocity      energy     time/iter
   386  2.0263e-04  2.1238e-03  1.1566e-04  2.1804e+00  2.0220e-04  0:03:51 1614
   387  1.6188e-04  2.0890e-03  1.0792e-04  2.1900e+00  1.6132e-04  0:03:05 1613
   388  1.2363e-04  2.0553e-03  1.0016e-04  2.2540e+00  1.2290e-04  0:02:28 1612
   389  9.1675e-05  2.0247e-03  9.2260e-05  2.2967e+00  9.0766e-05  0:01:58 1611
   390  7.3960e-05  1.9962e-03  8.4578e-05  2.2499e+00  7.2962e-05  0:01:35 1610
   391  8.0173e-05  1.9716e-03  7.7287e-05  2.1182e+00  7.9378e-05  0:01:16 1609
   392  1.0425e-04  1.9507e-03  7.0933e-05  1.9567e+00  1.0374e-04  0:01:00 1608
   393  1.3564e-04  1.9328e-03  6.6203e-05  1.8171e+00  1.3531e-04  0:00:48 1607
   394  1.6852e-04  1.9172e-03  6.3230e-05  1.7038e+00  1.6829e-04  0:06:00 1606
   395  2.0036e-04  1.9030e-03  6.0923e-05  1.6008e+00  2.0020e-04  0:04:48 1605
   396  2.3018e-04  1.8903e-03  6.0903e-05  1.4989e+00  2.3008e-04  0:03:50 1604

  iter  continuity  x-velocity  y-velocity  z-velocity      energy     time/iter
   397  2.5739e-04  1.8783e-03  6.3780e-05  1.4023e+00  2.5732e-04  0:03:04 1603
   398  2.8150e-04  1.8683e-03  6.8495e-05  1.2988e+00  2.8143e-04  0:02:27 1602
   399  3.0210e-04  1.8597e-03  7.2482e-05  1.1972e+00  3.0203e-04  0:01:58 1601
   400  3.1857e-04  1.8496e-03  7.6663e-05  1.1151e+00  3.1849e-04  0:01:34 1600
   401  3.3138e-04  1.8408e-03  8.0666e-05  1.0694e+00  3.3129e-04  0:01:15 1599
   402  3.4035e-04  1.8326e-03  8.4650e-05  1.0682e+00  3.4026e-04  0:01:00 1598
   403  3.4547e-04  1.8252e-03  8.8405e-05  1.1091e+00  3.4538e-04  0:06:07 1597
   404  3.4672e-04  1.8171e-03  9.1628e-05  1.1967e+00  3.4661e-04  0:04:54 1596
   405  3.4413e-04  1.8075e-03  9.4300e-05  1.3187e+00  3.4400e-04  0:03:55 1595
   406  3.3789e-04  1.7972e-03  9.6194e-05  1.4602e+00  3.3774e-04  0:03:08 1594
   407  3.2816e-04  1.7860e-03  9.7251e-05  1.5951e+00  3.2798e-04  0:02:30 1593

  iter  continuity  x-velocity  y-velocity  z-velocity      energy     time/iter
   408  3.1506e-04  1.7731e-03  9.7455e-05  1.6948e+00  3.1485e-04  0:02:00 1592
   409  2.9894e-04  1.7590e-03  9.6828e-05  1.7219e+00  2.9868e-04  0:01:36 1591
   410  2.8016e-04  1.7451e-03  9.5459e-05  1.6811e+00  2.7986e-04  0:01:17 1590
   411  2.5904e-04  1.7316e-03  9.3423e-05  1.5872e+00  2.5869e-04  0:01:01 1589
   412  2.3598e-04  1.7191e-03  9.0859e-05  1.4689e+00  2.3558e-04  0:00:49 1588
   413  2.1122e-04  1.7060e-03  8.7985e-05  1.3490e+00  2.1077e-04  0:05:57 1587
   414  1.8535e-04  1.6917e-03  8.4878e-05  1.2444e+00  1.8483e-04  0:04:45 1586
   415  1.5860e-04  1.6757e-03  8.0745e-05  1.1733e+00  1.5795e-04  0:03:48 1585
   416  1.3059e-04  1.6577e-03  7.4810e-05  1.1336e+00  1.2980e-04  0:03:02 1584
   417  1.0435e-04  1.6408e-03  6.9106e-05  1.1377e+00  1.0336e-04  0:02:26 1583
   418  8.1470e-05  1.6256e-03  6.3591e-05  1.2038e+00  8.0198e-05  0:01:56 1582

  iter  continuity  x-velocity  y-velocity  z-velocity      energy     time/iter
   419  6.5412e-05  1.6119e-03  5.8783e-05  1.3018e+00  6.3846e-05  0:01:33 1581
   420  6.1595e-05  1.6000e-03  5.4550e-05  1.3628e+00  5.9962e-05  0:01:14 1580
   421  7.1046e-05  1.5904e-03  5.0964e-05  1.3486e+00  6.9657e-05  0:01:00 1579
   422  8.8173e-05  1.5823e-03  4.8375e-05  1.2696e+00  8.7073e-05  0:00:48 1578
   423  1.0648e-04  1.5690e-03  4.6868e-05  1.1620e+00  1.0562e-04  0:05:53 1577
   424  1.2740e-04  1.5608e-03  4.6097e-05  1.0937e+00  1.2672e-04  0:04:43 1576
   425  1.4804e-04  1.5561e-03  4.6787e-05  1.1208e+00  1.4748e-04  0:03:46 1575
   426  1.6734e-04  1.5540e-03  4.8726e-05  1.2083e+00  1.6686e-04  0:03:01 1574
   427  1.8485e-04  1.5543e-03  5.1535e-05  1.2652e+00  1.8443e-04  0:02:24 1573
   428  2.0029e-04  1.5574e-03  5.5038e-05  1.2645e+00  1.9991e-04  0:01:55 1572
   429  2.1312e-04  1.5577e-03  5.8998e-05  1.2330e+00  2.1279e-04  0:01:32 1571

  iter  continuity  x-velocity  y-velocity  z-velocity      energy     time/iter
   430  2.2337e-04  1.5511e-03  6.2171e-05  1.2167e+00  2.2308e-04  0:01:14 1570
   431  2.3145e-04  1.5470e-03  6.4090e-05  1.2508e+00  2.3119e-04  0:00:59 1569
   432  2.3704e-04  1.5438e-03  6.6107e-05  1.3234e+00  2.3680e-04  0:00:47 1568
   433  2.4004e-04  1.5404e-03  6.8121e-05  1.3995e+00  2.3982e-04  0:05:51 1567
   434  2.3663e-04  1.5098e-03  6.9201e-05  1.4480e+00  2.3644e-04  0:04:41 1566
   435  2.3210e-04  1.4858e-03  6.9772e-05  1.4593e+00  2.3193e-04  0:03:44 1565
   436  2.2593e-04  1.4660e-03  7.0152e-05  1.4451e+00  2.2577e-04  0:02:59 1564
   437  2.1785e-04  1.4475e-03  7.0171e-05  1.4205e+00  2.1769e-04  0:02:23 1563
   438  2.0783e-04  1.4300e-03  6.9847e-05  1.3928e+00  2.0768e-04  0:01:55 1562
   439  1.9576e-04  1.4153e-03  6.8941e-05  1.3747e+00  1.9562e-04  0:01:32 1561
   440  1.8154e-04  1.4093e-03  6.7480e-05  1.3661e+00  1.8140e-04  0:01:13 1560

  iter  continuity  x-velocity  y-velocity  z-velocity      energy     time/iter
   441  1.6649e-04  1.4048e-03  6.6453e-05  1.3718e+00  1.6636e-04  0:00:59 1559
   442  1.4827e-04  1.3871e-03  6.4841e-05  1.4088e+00  1.4816e-04  0:00:47 1558
   443  1.3066e-04  1.3745e-03  6.2520e-05  1.4612e+00  1.3057e-04  0:05:49 1557
   444  1.1259e-04  1.3632e-03  5.9857e-05  1.5093e+00  1.1251e-04  0:04:39 1556
   445  9.5043e-05  1.3455e-03  5.5342e-05  1.5551e+00  9.5011e-05  0:03:43 1555
   446  7.9441e-05  1.3305e-03  5.1519e-05  1.5898e+00  7.9431e-05  0:02:58 1554
   447  6.4692e-05  1.3162e-03  4.7702e-05  1.6273e+00  6.4683e-05  0:02:23 1553
   448  5.2659e-05  1.3039e-03  4.4245e-05  1.6828e+00  5.2628e-05  0:01:54 1552
   449  4.6694e-05  1.2947e-03  4.1727e-05  1.7707e+00  4.6600e-05  0:01:31 1551
   450  4.9987e-05  1.2905e-03  4.0071e-05  1.8866e+00  4.9811e-05  0:01:13 1550
   451  5.9547e-05  1.2892e-03  4.0107e-05  1.9989e+00  5.9350e-05  0:00:58 1549

  iter  continuity  x-velocity  y-velocity  z-velocity      energy     time/iter
   452  7.2716e-05  1.2901e-03  4.1555e-05  2.0791e+00  7.2522e-05  0:00:47 1548
   453  8.7167e-05  1.2928e-03  4.3769e-05  2.1203e+00  8.6984e-05  0:05:47 1547
   454  9.8803e-05  1.2913e-03  4.5984e-05  2.1272e+00  9.8657e-05  0:04:37 1546
   455  1.1019e-04  1.2896e-03  4.6390e-05  2.1250e+00  1.1005e-04  0:03:42 1545
   456  1.2076e-04  1.2874e-03  4.6662e-05  2.1397e+00  1.2062e-04  0:02:57 1544
   457  1.3021e-04  1.2846e-03  4.7210e-05  2.1407e+00  1.3006e-04  0:02:22 1543
   458  1.3828e-04  1.2804e-03  4.7905e-05  2.0656e+00  1.3812e-04  0:01:53 1542
   459  1.4483e-04  1.2748e-03  4.8640e-05  1.8949e+00  1.4468e-04  0:01:31 1541
   460  1.4976e-04  1.2680e-03  4.9367e-05  1.6681e+00  1.4961e-04  0:01:12 1540
   461  1.5302e-04  1.2600e-03  5.0015e-05  1.4450e+00  1.5287e-04  0:00:58 1539
   462  1.5460e-04  1.2511e-03  5.0550e-05  1.2533e+00  1.5445e-04  0:00:46 1538

  iter  continuity  x-velocity  y-velocity  z-velocity      energy     time/iter
   463  1.5454e-04  1.2412e-03  5.0877e-05  1.0994e+00  1.5438e-04  0:00:37 1537
   464  1.5286e-04  1.2304e-03  5.0929e-05  9.7587e-01  1.5271e-04  0:05:37 1536
   465  1.4964e-04  1.2200e-03  5.0689e-05  9.0850e-01  1.4949e-04  0:04:29 1535
   466  1.4492e-04  1.2099e-03  5.0256e-05  9.2342e-01  1.4476e-04  0:03:35 1534
   467  1.3873e-04  1.2004e-03  4.9530e-05  1.0188e+00  1.3856e-04  0:02:52 1533
   468  1.3132e-04  1.1907e-03  4.8682e-05  1.1565e+00  1.3113e-04  0:02:18 1532
   469  1.2280e-04  1.1812e-03  4.7623e-05  1.3079e+00  1.2258e-04  0:01:50 1531
   470  1.1328e-04  1.1714e-03  4.6321e-05  1.4533e+00  1.1302e-04  0:01:28 1530
   471  1.0266e-04  1.1591e-03  4.4761e-05  1.5828e+00  1.0237e-04  0:01:10 1529
   472  9.1521e-05  1.1482e-03  4.2454e-05  1.6962e+00  9.1206e-05  0:00:56 1528
   473  8.0027e-05  1.1385e-03  4.0242e-05  1.7986e+00  7.9681e-05  0:05:50 1527

  iter  continuity  x-velocity  y-velocity  z-velocity      energy     time/iter
   474  6.8439e-05  1.1291e-03  3.8145e-05  1.8926e+00  6.8040e-05  0:04:40 1526
   475  5.7202e-05  1.1202e-03  3.6092e-05  1.9451e+00  5.6724e-05  0:03:44 1525
   476  4.6794e-05  1.1117e-03  3.3913e-05  1.9564e+00  4.6202e-05  0:02:59 1524
   477  3.8309e-05  1.1039e-03  3.1637e-05  1.9287e+00  3.7577e-05  0:02:23 1523
   478  3.3211e-05  1.0964e-03  2.9637e-05  1.8627e+00  3.2375e-05  0:01:54 1522
   479  3.2902e-05  1.0891e-03  2.7837e-05  1.7674e+00  3.2086e-05  0:01:31 1521
   480  3.7012e-05  1.0819e-03  2.6523e-05  1.6578e+00  3.6320e-05  0:01:13 1520
   481  4.2055e-05  1.0716e-03  2.5574e-05  1.5425e+00  4.1531e-05  0:00:58 1519
   482  4.9944e-05  1.0631e-03  2.4152e-05  1.4272e+00  4.9542e-05  0:00:47 1518
   483  5.8609e-05  1.0559e-03  2.3499e-05  1.3149e+00  5.8279e-05  0:00:37 1517
   484  6.7037e-05  1.0494e-03  2.3472e-05  1.2078e+00  6.6758e-05  0:00:30 1516

  iter  continuity  x-velocity  y-velocity  z-velocity      energy     time/iter
   485  7.4796e-05  1.0430e-03  2.3787e-05  1.1079e+00  7.4561e-05  0:05:27 1515
   486  8.1672e-05  1.0365e-03  2.4436e-05  1.0165e+00  8.1473e-05  0:04:21 1514
   487  8.7549e-05  1.0299e-03  2.5386e-05  9.3375e-01  8.7380e-05  0:03:29 1513
   488  9.2223e-05  1.0222e-03  2.6356e-05  8.5934e-01  9.2076e-05  0:02:47 1512
   489  9.5845e-05  1.0125e-03  2.7153e-05  7.9253e-01  9.5716e-05  0:02:14 1511
   490  9.8672e-05  1.0042e-03  2.8063e-05  7.4217e-01  9.8558e-05  0:01:47 1510
   491  1.0026e-04  9.9644e-04  2.9085e-05  7.2281e-01  1.0016e-04  0:01:25 1509
   492  1.0054e-04  9.8845e-04  2.9940e-05  7.1912e-01  1.0046e-04  0:01:08 1508
   493  9.9730e-05  9.8032e-04  3.0528e-05  6.4622e-01  9.9655e-05  0:00:55 1507
   494  9.7657e-05  9.7190e-04  3.0952e-05  5.7799e-01  9.7587e-05  0:00:44 1506
   495  9.4593e-05  9.6415e-04  3.0951e-05  6.2270e-01  9.4526e-05  0:05:36 1505

  iter  continuity  x-velocity  y-velocity  z-velocity      energy     time/iter
   496  9.0654e-05  9.5711e-04  3.0714e-05  7.4329e-01  9.0595e-05  0:04:29 1504
   497  8.5846e-05  9.5079e-04  3.0353e-05  8.9613e-01  8.5782e-05  0:03:35 1503
   498  8.0340e-05  9.4519e-04  2.9902e-05  1.0406e+00  8.0272e-05  0:02:52 1502
   499  7.4149e-05  9.4005e-04  2.9392e-05  1.1376e+00  7.4078e-05  0:02:17 1501
   500  6.7477e-05  9.3552e-04  2.8725e-05  1.1499e+00  6.7403e-05  0:01:50 1500
   501  6.0388e-05  9.3128e-04  2.7900e-05  1.1154e+00  6.0309e-05  0:01:28 1499
   502  5.2997e-05  9.2734e-04  2.6912e-05  1.0750e+00  5.2913e-05  0:01:10 1498
   503  4.5667e-05  9.2411e-04  2.5785e-05  1.0399e+00  4.5576e-05  0:00:56 1497
   504  3.8614e-05  9.2138e-04  2.4721e-05  9.9911e-01  3.8523e-05  0:00:45 1496
   505  3.2050e-05  9.1898e-04  2.3718e-05  9.5015e-01  3.2002e-05  0:00:36 1495
   506  2.7115e-05  9.1681e-04  2.2747e-05  8.9899e-01  2.7074e-05  0:00:29 1494

  iter  continuity  x-velocity  y-velocity  z-velocity      energy     time/iter
   507  2.4492e-05  9.1464e-04  2.1978e-05  8.4387e-01  2.4425e-05  0:05:21 1493
   508  2.4770e-05  9.1231e-04  2.1267e-05  7.9158e-01  2.4668e-05  0:04:17 1492
   509  2.7655e-05  9.0963e-04  2.0575e-05  7.4594e-01  2.7529e-05  0:03:25 1491
   510  3.1879e-05  9.0646e-04  2.0028e-05  7.1266e-01  3.1761e-05  0:02:44 1490
   511  3.6710e-05  9.0263e-04  1.9730e-05  6.9238e-01  3.6610e-05  0:02:11 1489
   512  4.1757e-05  8.9855e-04  1.9648e-05  6.7732e-01  4.1667e-05  0:01:45 1488
   513  4.6699e-05  8.9409e-04  1.9658e-05  6.7041e-01  4.6611e-05  0:01:24 1487
   514  5.1283e-05  8.8929e-04  1.9757e-05  6.7031e-01  5.1195e-05  0:01:07 1486
   515  5.5367e-05  8.8398e-04  1.9963e-05  6.7689e-01  5.5278e-05  0:00:54 1485
   516  5.8359e-05  8.7629e-04  1.9961e-05  6.8800e-01  5.8273e-05  0:00:43 1484
   517  6.0992e-05  8.6828e-04  1.9759e-05  6.8862e-01  6.0910e-05  0:00:34 1483

  iter  continuity  x-velocity  y-velocity  z-velocity      energy     time/iter
   518  6.3285e-05  8.6189e-04  1.9899e-05  6.6132e-01  6.3202e-05  0:05:24 1482
   519  6.4809e-05  8.5599e-04  2.0251e-05  6.1748e-01  6.4723e-05  0:04:19 1481
   520  6.5560e-05  8.5053e-04  2.0589e-05  5.6896e-01  6.5471e-05  0:03:27 1480
   521  6.5542e-05  8.4542e-04  2.0873e-05  5.3258e-01  6.5451e-05  0:02:45 1479
   522  6.4758e-05  8.4036e-04  2.1070e-05  5.1751e-01  6.4664e-05  0:02:12 1478
   523  6.3277e-05  8.3538e-04  2.1126e-05  5.1917e-01  6.3183e-05  0:01:46 1477
   524  6.1154e-05  8.3039e-04  2.1062e-05  5.2753e-01  6.1059e-05  0:01:25 1476
   525  5.8426e-05  8.2559e-04  2.0908e-05  5.5693e-01  5.8331e-05  0:01:08 1475
   526  5.5151e-05  8.2060e-04  2.0648e-05  6.0321e-01  5.5055e-05  0:00:54 1474
   527  5.1394e-05  8.1572e-04  2.0310e-05  6.6447e-01  5.1291e-05  0:00:43 1473
   528  4.7124e-05  8.1086e-04  1.9867e-05  7.3542e-01  4.7007e-05  0:05:29 1472

  iter  continuity  x-velocity  y-velocity  z-velocity      energy     time/iter
   529  4.2474e-05  8.0628e-04  1.9268e-05  7.9985e-01  4.2335e-05  0:04:23 1471
   530  3.7631e-05  8.0253e-04  1.8629e-05  8.5299e-01  3.7471e-05  0:03:30 1470
   531  3.2559e-05  7.9826e-04  1.7783e-05  8.9713e-01  3.2383e-05  0:02:48 1469
   532  2.7448e-05  7.9405e-04  1.6837e-05  9.2908e-01  2.7252e-05  0:02:14 1468
   533  2.2424e-05  7.8954e-04  1.5841e-05  9.5125e-01  2.2196e-05  0:01:47 1467
   534  1.7782e-05  7.8475e-04  1.4843e-05  9.4649e-01  1.7506e-05  0:01:26 1466
   535  1.3996e-05  7.8008e-04  1.3882e-05  9.1170e-01  1.3655e-05  0:01:09 1465
   536  1.1866e-05  7.7567e-04  1.2979e-05  8.6134e-01  1.1454e-05  0:00:55 1464
   537  1.2389e-05  7.7161e-04  1.2232e-05  8.0918e-01  1.1984e-05  0:00:44 1463
   538  1.4965e-05  7.6788e-04  1.1709e-05  7.7738e-01  1.4627e-05  0:00:35 1462
   539  1.8116e-05  7.6418e-04  1.1319e-05  7.8746e-01  1.7842e-05  0:00:28 1461

  iter  continuity  x-velocity  y-velocity  z-velocity      energy     time/iter
   540  2.1975e-05  7.6031e-04  1.0940e-05  7.8594e-01  2.1758e-05  0:05:14 1460
   541  2.5740e-05  7.5637e-04  1.0784e-05  7.4065e-01  2.5559e-05  0:04:11 1459
   542  2.9322e-05  7.5255e-04  1.0788e-05  6.9916e-01  2.9167e-05  0:03:21 1458
   543  3.2404e-05  7.4848e-04  1.0952e-05  7.0827e-01  3.2269e-05  0:02:41 1457
   544  3.5180e-05  7.4447e-04  1.1126e-05  7.3510e-01  3.5061e-05  0:02:08 1456
   545  3.7483e-05  7.3997e-04  1.1434e-05  7.5413e-01  3.7388e-05  0:01:43 1455
   546  3.9314e-05  7.3583e-04  1.1825e-05  7.6173e-01  3.9243e-05  0:01:22 1454
   547  4.0638e-05  7.3218e-04  1.2310e-05  7.2501e-01  4.0578e-05  0:01:06 1453
   548  4.1528e-05  7.2867e-04  1.2834e-05  6.7970e-01  4.1471e-05  0:00:52 1452
   549  4.1988e-05  7.2529e-04  1.3288e-05  6.0638e-01  4.1931e-05  0:00:42 1451
   550  4.1895e-05  7.2180e-04  1.3611e-05  5.3513e-01  4.1840e-05  0:00:34 1450

  iter  continuity  x-velocity  y-velocity  z-velocity      energy     time/iter
   551  4.1202e-05  7.1831e-04  1.3600e-05  5.2662e-01  4.1152e-05  0:00:27 1449
   552  4.0113e-05  7.1467e-04  1.3474e-05  5.4930e-01  4.0075e-05  0:05:11 1448
   553  3.8644e-05  7.1077e-04  1.3493e-05  5.6791e-01  3.8614e-05  0:04:09 1447
   554  3.6850e-05  7.0659e-04  1.3483e-05  5.6876e-01  3.6819e-05  0:03:19 1446
   555  3.4696e-05  7.0240e-04  1.3366e-05  5.5759e-01  3.4664e-05  0:02:39 1445
   556  3.2203e-05  6.9819e-04  1.3190e-05  5.3631e-01  3.2171e-05  0:02:07 1444
   557  2.9424e-05  6.9394e-04  1.2948e-05  5.1306e-01  2.9393e-05  0:01:42 1443
   558  2.6428e-05  6.8965e-04  1.2643e-05  4.8709e-01  2.6395e-05  0:01:21 1442
   559  2.3282e-05  6.8534e-04  1.2281e-05  4.6325e-01  2.3246e-05  0:01:05 1441
   560  2.0071e-05  6.8103e-04  1.1877e-05  4.4076e-01  2.0029e-05  0:00:52 1440
   561  1.6898e-05  6.7672e-04  1.1422e-05  4.2064e-01  1.6848e-05  0:00:41 1439

  iter  continuity  x-velocity  y-velocity  z-velocity      energy     time/iter
   562  1.3904e-05  6.7244e-04  1.0941e-05  4.0275e-01  1.3844e-05  0:00:33 1438
   563  1.1318e-05  6.6829e-04  1.0446e-05  3.8764e-01  1.1248e-05  0:05:14 1437
   564  9.6419e-06  6.6428e-04  9.9307e-06  3.7675e-01  9.5640e-06  0:04:11 1436
   565  9.2931e-06  6.6046e-04  9.4178e-06  3.8018e-01  9.2167e-06  0:03:21 1435
   566  1.0328e-05  6.5648e-04  9.0238e-06  3.9650e-01  1.0261e-05  0:02:40 1434
   567  1.2097e-05  6.5229e-04  8.6708e-06  4.2679e-01  1.2037e-05  0:02:08 1433
   568  1.4217e-05  6.4805e-04  8.3962e-06  4.7430e-01  1.4161e-05  0:01:43 1432
   569  1.6491e-05  6.4387e-04  8.2206e-06  5.3680e-01  1.6437e-05  0:01:22 1431
   570  1.8765e-05  6.3979e-04  8.1675e-06  6.0651e-01  1.8711e-05  0:01:06 1430
   571  2.0813e-05  6.3565e-04  8.2439e-06  6.7450e-01  2.0758e-05  0:00:52 1429
   572  2.2651e-05  6.3149e-04  8.3471e-06  7.1740e-01  2.2595e-05  0:00:42 1428

  iter  continuity  x-velocity  y-velocity  z-velocity      energy     time/iter
   573  2.4260e-05  6.2742e-04  8.4674e-06  7.2881e-01  2.4203e-05  0:00:33 1427
   574  2.5485e-05  6.2334e-04  8.6330e-06  7.2254e-01  2.5432e-05  0:00:27 1426
   575  2.6424e-05  6.1957e-04  8.7474e-06  7.0665e-01  2.6384e-05  0:05:06 1425
   576  2.7116e-05  6.1591e-04  8.8679e-06  6.7410e-01  2.7080e-05  0:04:05 1424
   577  2.7506e-05  6.1223e-04  9.0191e-06  6.2833e-01  2.7467e-05  0:03:16 1423
   578  2.7582e-05  6.0858e-04  9.1697e-06  5.7348e-01  2.7539e-05  0:02:37 1422
   579  2.7346e-05  6.0496e-04  9.2905e-06  5.1674e-01  2.7299e-05  0:02:05 1421
   580  2.6808e-05  6.0141e-04  9.3727e-06  4.6359e-01  2.6757e-05  0:01:40 1420
   581  2.5989e-05  5.9796e-04  9.4130e-06  4.1685e-01  2.5937e-05  0:01:20 1419
   582  2.4924e-05  5.9467e-04  9.4011e-06  3.7767e-01  2.4875e-05  0:01:04 1418
   583  2.3602e-05  5.9149e-04  9.3540e-06  3.4538e-01  2.3551e-05  0:00:51 1417

  iter  continuity  x-velocity  y-velocity  z-velocity      energy     time/iter
   584  2.2009e-05  5.8840e-04  9.2756e-06  3.1916e-01  2.1951e-05  0:00:41 1416
   585  2.0208e-05  5.8544e-04  9.1311e-06  2.9787e-01  2.0139e-05  0:00:33 1415
   586  1.8222e-05  5.8240e-04  8.9032e-06  2.8200e-01  1.8142e-05  0:05:09 1414
   587  1.6107e-05  5.7909e-04  8.6037e-06  2.7113e-01  1.6015e-05  0:04:07 1413
   588  1.4009e-05  5.7618e-04  8.2800e-06  2.6086e-01  1.3901e-05  0:03:17 1412
   589  1.1925e-05  5.7354e-04  8.0122e-06  2.5240e-01  1.1796e-05  0:02:38 1411
   590  9.9244e-06  5.7110e-04  7.7625e-06  2.4768e-01  9.7674e-06  0:02:06 1410
   591  8.1443e-06  5.6881e-04  7.5109e-06  2.4669e-01  7.9491e-06  0:01:41 1409
   592  6.8070e-06  5.6666e-04  7.2543e-06  2.4849e-01  6.5695e-06  0:01:21 1408
   593  6.2138e-06  5.6461e-04  7.0016e-06  2.5129e-01  5.9492e-06  0:01:04 1407
   594  6.5199e-06  5.6266e-04  6.7623e-06  2.5368e-01  6.2671e-06  0:00:52 1406

  iter  continuity  x-velocity  y-velocity  z-velocity      energy     time/iter
   595  7.5248e-06  5.6074e-04  6.4597e-06  2.5694e-01  7.3173e-06  0:00:41 1405
   596  8.9357e-06  5.5886e-04  6.3071e-06  2.6192e-01  8.7701e-06  0:00:33 1404
   597  1.0488e-05  5.5693e-04  6.2387e-06  2.6675e-01  1.0354e-05  0:00:26 1403
   598  1.2102e-05  5.5488e-04  6.2315e-06  2.7239e-01  1.1991e-05  0:05:01 1402
   599  1.3773e-05  5.5275e-04  6.3393e-06  2.9858e-01  1.3677e-05  0:04:01 1401
   600  1.5241e-05  5.5070e-04  6.5922e-06  3.6426e-01  1.5160e-05  0:03:13 1400
   601  1.6378e-05  5.4854e-04  6.8669e-06  4.4407e-01  1.6308e-05  0:02:34 1399
   602  1.7201e-05  5.4648e-04  6.7842e-06  4.7821e-01  1.7137e-05  0:02:03 1398
   603  1.8067e-05  5.4457e-04  6.6944e-06  4.5863e-01  1.8012e-05  0:01:38 1397
   604  1.8573e-05  5.4274e-04  6.6518e-06  3.8787e-01  1.8525e-05  0:01:19 1396
   605  1.8841e-05  5.4084e-04  6.7212e-06  3.7300e-01  1.8800e-05  0:01:03 1395

  iter  continuity  x-velocity  y-velocity  z-velocity      energy     time/iter
   606  1.8987e-05  5.3883e-04  6.7428e-06  4.0350e-01  1.8951e-05  0:00:50 1394
   607  1.8959e-05  5.3659e-04  6.8121e-06  4.5422e-01  1.8924e-05  0:00:40 1393
   608  1.8765e-05  5.3436e-04  6.8793e-06  4.8554e-01  1.8732e-05  0:00:32 1392
   609  1.8269e-05  5.3200e-04  6.9612e-06  4.8235e-01  1.8239e-05  0:00:26 1391
   610  1.7638e-05  5.2968e-04  6.9567e-06  4.5240e-01  1.7610e-05  0:04:59 1390
   611  1.6846e-05  5.2749e-04  6.9258e-06  3.9850e-01  1.6820e-05  0:03:59 1389
   612  1.5726e-05  5.2524e-04  6.8892e-06  3.6403e-01  1.5698e-05  0:03:11 1388
   613  1.4509e-05  5.2299e-04  6.7654e-06  3.6377e-01  1.4479e-05  0:02:33 1387
   614  1.3218e-05  5.2075e-04  6.6066e-06  3.7366e-01  1.3188e-05  0:02:02 1386
   615  1.1843e-05  5.1851e-04  6.4504e-06  3.8026e-01  1.1814e-05  0:01:37 1385
   616  1.0439e-05  5.1647e-04  6.3152e-06  3.7901e-01  1.0413e-05  0:01:18 1384

  iter  continuity  x-velocity  y-velocity  z-velocity      energy     time/iter
   617  9.0952e-06  5.1459e-04  6.1561e-06  3.7246e-01  9.0766e-06  0:01:02 1383
   618  7.8881e-06  5.1267e-04  5.9348e-06  3.6506e-01  7.8892e-06  0:00:50 1382
   619  6.7859e-06  5.1065e-04  5.6378e-06  3.5559e-01  6.8080e-06  0:00:40 1381
   620  5.8331e-06  5.0848e-04  5.4348e-06  3.4584e-01  5.8675e-06  0:00:32 1380
   621  5.2022e-06  5.0611e-04  5.2754e-06  3.3718e-01  5.2367e-06  0:05:01 1379
   622  5.1479e-06  5.0379e-04  5.1146e-06  3.1776e-01  5.1666e-06  0:04:01 1378
   623  5.6344e-06  5.0153e-04  4.9788e-06  2.9309e-01  5.6347e-06  0:03:13 1377
   624  6.4852e-06  4.9931e-04  4.8580e-06  2.6847e-01  6.4725e-06  0:02:34 1376
   625  7.5307e-06  4.9710e-04  4.7622e-06  2.4653e-01  7.5094e-06  0:02:03 1375
   626  8.6363e-06  4.9478e-04  4.6898e-06  2.3320e-01  8.6072e-06  0:01:38 1374
   627  9.7132e-06  4.9247e-04  4.6523e-06  2.2061e-01  9.6813e-06  0:01:19 1373

  iter  continuity  x-velocity  y-velocity  z-velocity      energy     time/iter
   628  1.0713e-05  4.9015e-04  4.6666e-06  2.0658e-01  1.0679e-05  0:01:03 1372
   629  1.1612e-05  4.8782e-04  4.7091e-06  1.9147e-01  1.1577e-05  0:00:50 1371
   630  1.2382e-05  4.8549e-04  4.7678e-06  1.7948e-01  1.2345e-05  0:00:40 1370
   631  1.2999e-05  4.8312e-04  4.8305e-06  1.7107e-01  1.2961e-05  0:00:32 1369
   632  1.3460e-05  4.8074e-04  4.8968e-06  1.6317e-01  1.3421e-05  0:04:59 1368
   633  1.3763e-05  4.7835e-04  4.9569e-06  1.5261e-01  1.3724e-05  0:03:59 1367
   634  1.3909e-05  4.7597e-04  5.0102e-06  1.4275e-01  1.3870e-05  0:03:11 1366
   635  1.3895e-05  4.7359e-04  5.0524e-06  1.3333e-01  1.3856e-05  0:02:33 1365
   636  1.3716e-05  4.7116e-04  5.0721e-06  1.2521e-01  1.3678e-05  0:02:02 1364
   637  1.3394e-05  4.6872e-04  5.0562e-06  1.1907e-01  1.3357e-05  0:01:38 1363
   638  1.2904e-05  4.6616e-04  5.0311e-06  1.2025e-01  1.2865e-05  0:01:18 1362

  iter  continuity  x-velocity  y-velocity  z-velocity      energy     time/iter
   639  1.2291e-05  4.6362e-04  5.0108e-06  1.2302e-01  1.2251e-05  0:01:02 1361
   640  1.1580e-05  4.6117e-04  4.9877e-06  1.2152e-01  1.1538e-05  0:00:50 1360
   641  1.0754e-05  4.5878e-04  4.9643e-06  1.2026e-01  1.0709e-05  0:00:40 1359
   642  9.8453e-06  4.5645e-04  4.9288e-06  1.2324e-01  9.7906e-06  0:05:03 1358
   643  8.8717e-06  4.5414e-04  4.8877e-06  1.2632e-01  8.8029e-06  0:04:03 1357
   644  7.8516e-06  4.5186e-04  4.7967e-06  1.2724e-01  7.7691e-06  0:03:14 1356
   645  6.8062e-06  4.4955e-04  4.6689e-06  1.2762e-01  6.7098e-06  0:02:35 1355
   646  5.7441e-06  4.4710e-04  4.5101e-06  1.2781e-01  5.6356e-06  0:02:04 1354
   647  4.7843e-06  4.4491e-04  4.3511e-06  1.3035e-01  4.6710e-06  0:01:39 1353
   648  4.0598e-06  4.4308e-04  4.2508e-06  1.3766e-01  3.9345e-06  0:01:19 1352
   649  3.5266e-06  4.4077e-04  4.1808e-06  1.3814e-01  3.3887e-06  0:01:03 1351

  iter  continuity  x-velocity  y-velocity  z-velocity      energy     time/iter
   650  3.4351e-06  4.3859e-04  4.0837e-06  1.4109e-01  3.2929e-06  0:00:51 1350
   651  3.7020e-06  4.3634e-04  3.9528e-06  1.5066e-01  3.5692e-06  0:00:40 1349
   652  4.3476e-06  4.3416e-04  3.8240e-06  1.5605e-01  4.2300e-06  0:05:02 1348
   653  5.1790e-06  4.3226e-04  3.7722e-06  1.5609e-01  5.0732e-06  0:04:01 1347
   654  5.9819e-06  4.2993e-04  3.7709e-06  1.5493e-01  5.8925e-06  0:03:13 1346
   655  6.7626e-06  4.2748e-04  3.6878e-06  1.5398e-01  6.6930e-06  0:02:34 1345
   656  7.5403e-06  4.2483e-04  3.5790e-06  1.5125e-01  7.4863e-06  0:02:03 1344
   657  8.2762e-06  4.2203e-04  3.6167e-06  1.5649e-01  8.2297e-06  0:01:39 1343
   658  8.9781e-06  4.1964e-04  3.8297e-06  1.8605e-01  8.9310e-06  0:01:19 1342
   659  9.6240e-06  4.1856e-04  4.2234e-06  2.5277e-01  9.5711e-06  0:01:03 1341
   660  9.9942e-06  4.1737e-04  4.3052e-06  3.5996e-01  9.9398e-06  0:00:50 1340

  iter  continuity  x-velocity  y-velocity  z-velocity      energy     time/iter
   661  1.0269e-05  4.1581e-04  4.3488e-06  4.6002e-01  1.0218e-05  0:00:40 1339
   662  1.0411e-05  4.1482e-04  4.3826e-06  5.2785e-01  1.0364e-05  0:00:32 1338
   663  1.0382e-05  4.1209e-04  4.0721e-06  5.7639e-01  1.0346e-05  0:04:53 1337
   664  1.0387e-05  4.0986e-04  3.9613e-06  5.8854e-01  1.0359e-05  0:03:54 1336
   665  1.0294e-05  4.0790e-04  3.9846e-06  5.7316e-01  1.0269e-05  0:03:07 1335
   666  1.0069e-05  4.0596e-04  4.0550e-06  5.3864e-01  1.0044e-05  0:02:30 1334
   667  9.7534e-06  4.0393e-04  4.1581e-06  4.8612e-01  9.7278e-06  0:02:00 1333
   668  9.5574e-06  4.0176e-04  4.4379e-06  4.2109e-01  9.5292e-06  0:01:36 1332
   669  9.4723e-06  3.9959e-04  4.8723e-06  3.5287e-01  9.4424e-06  0:01:16 1331
   670  8.9787e-06  3.9771e-04  5.0782e-06  2.9883e-01  8.9390e-06  0:01:01 1330
   671  7.9028e-06  3.9703e-04  4.7597e-06  2.3000e-01  7.8440e-06  0:00:49 1329

  iter  continuity  x-velocity  y-velocity  z-velocity      energy     time/iter
   672  6.7763e-06  3.9509e-04  4.2880e-06  2.1064e-01  6.7156e-06  0:00:39 1328
   673  5.9471e-06  3.9334e-04  3.8743e-06  2.5246e-01  5.8913e-06  0:00:31 1327
   674  5.1392e-06  3.9155e-04  3.6840e-06  2.8972e-01  5.0809e-06  0:04:50 1326
   675  4.3617e-06  3.8978e-04  3.5536e-06  3.0514e-01  4.2918e-06  0:03:52 1325
   676  3.6556e-06  3.8807e-04  3.4052e-06  2.9844e-01  3.5682e-06  0:03:05 1324
   677  3.0793e-06  3.8643e-04  3.2558e-06  2.7667e-01  2.9725e-06  0:02:28 1323
   678  2.7094e-06  3.8480e-04  3.1235e-06  2.4541e-01  2.5876e-06  0:01:58 1322
   679  2.6210e-06  3.8315e-04  3.0165e-06  2.1103e-01  2.4957e-06  0:01:35 1321
   680  2.8598e-06  3.8145e-04  2.9323e-06  1.7805e-01  2.7451e-06  0:01:16 1320
   681  3.5231e-06  3.7973e-04  2.8796e-06  1.4970e-01  3.4285e-06  0:01:01 1319
   682  4.3884e-06  3.7800e-04  2.9090e-06  1.4642e-01  4.3097e-06  0:00:48 1318

  iter  continuity  x-velocity  y-velocity  z-velocity      energy     time/iter
   683  5.1803e-06  3.7631e-04  3.0214e-06  1.7753e-01  5.1105e-06  0:05:02 1317
   684  5.7484e-06  3.7462e-04  3.1493e-06  1.9216e-01  5.6815e-06  0:04:01 1316
   685  5.9173e-06  3.7307e-04  3.4007e-06  1.6834e-01  5.8490e-06  0:03:13 1315
   686  6.5019e-06  3.7201e-04  3.7569e-06  1.4498e-01  6.4434e-06  0:02:34 1314
   687  6.9555e-06  3.7022e-04  3.1043e-06  1.3371e-01  6.9095e-06  0:02:03 1313
   688  7.1146e-06  3.6810e-04  2.6659e-06  1.3169e-01  7.0751e-06  0:01:39 1312
   689  7.2080e-06  3.6602e-04  2.6412e-06  1.3360e-01  7.1692e-06  0:01:19 1311
   690  7.3054e-06  3.6405e-04  2.7033e-06  1.3485e-01  7.2640e-06  0:01:03 1310
   691  7.3803e-06  3.6216e-04  2.7574e-06  1.3450e-01  7.3355e-06  0:00:50 1309
   692  7.4025e-06  3.6030e-04  2.7950e-06  1.3274e-01  7.3548e-06  0:00:40 1308
   693  7.3576e-06  3.5843e-04  2.8183e-06  1.3004e-01  7.3078e-06  0:00:32 1307

  iter  continuity  x-velocity  y-velocity  z-velocity      energy     time/iter
   694  7.2418e-06  3.5655e-04  2.8329e-06  1.2713e-01  7.1903e-06  0:04:47 1306
   695  7.0556e-06  3.5466e-04  2.8373e-06  1.2436e-01  7.0025e-06  0:03:49 1305
   696  6.8017e-06  3.5277e-04  2.8293e-06  1.2205e-01  6.7464e-06  0:03:03 1304
   697  6.4837e-06  3.5088e-04  2.8089e-06  1.2047e-01  6.4259e-06  0:02:27 1303
   698  6.1070e-06  3.4898e-04  2.7772e-06  1.1973e-01  6.0462e-06  0:01:57 1302
   699  5.6794e-06  3.4708e-04  2.7299e-06  1.1973e-01  5.6151e-06  0:01:34 1301
   700  5.2088e-06  3.4518e-04  2.6754e-06  1.2021e-01  5.1401e-06  0:01:15 1300
   701  4.7040e-06  3.4327e-04  2.6134e-06  1.2109e-01  4.6296e-06  0:01:00 1299
   702  4.1812e-06  3.4139e-04  2.5541e-06  1.2207e-01  4.0998e-06  0:00:48 1298
   703  3.6552e-06  3.3955e-04  2.4869e-06  1.2267e-01  3.5669e-06  0:00:38 1297
   704  3.1377e-06  3.3772e-04  2.4115e-06  1.2346e-01  3.0420e-06  0:00:31 1296

  iter  continuity  x-velocity  y-velocity  z-velocity      energy     time/iter
   705  2.6508e-06  3.3588e-04  2.3300e-06  1.2439e-01  2.5454e-06  0:04:43 1295
   706  2.2313e-06  3.3401e-04  2.2475e-06  1.2549e-01  2.1145e-06  0:03:47 1294
   707  1.9362e-06  3.3213e-04  2.1660e-06  1.2670e-01  1.8090e-06  0:03:01 1293
   708  1.8290e-06  3.3024e-04  2.0875e-06  1.2798e-01  1.7012e-06  0:02:25 1292
   709  1.9308e-06  3.2838e-04  2.0220e-06  1.2951e-01  1.8177e-06  0:01:56 1291
   710  2.1963e-06  3.2654e-04  1.9708e-06  1.3134e-01  2.1041e-06  0:01:33 1290
   711  2.5550e-06  3.2473e-04  1.9339e-06  1.3260e-01  2.4817e-06  0:01:14 1289
   712  2.9539e-06  3.2294e-04  1.9120e-06  1.3384e-01  2.8951e-06  0:00:59 1288
   713  3.3573e-06  3.2116e-04  1.9037e-06  1.3501e-01  3.3091e-06  0:05:05 1287
   714  3.7421e-06  3.1939e-04  1.9066e-06  1.3607e-01  3.7019e-06  0:04:04 1286
   715  4.0942e-06  3.1765e-04  1.9189e-06  1.3696e-01  4.0601e-06  0:03:15 1285

  iter  continuity  x-velocity  y-velocity  z-velocity      energy     time/iter
   716  4.4043e-06  3.1592e-04  1.9389e-06  1.3786e-01  4.3750e-06  0:02:36 1284
   717  4.6657e-06  3.1421e-04  1.9640e-06  1.3873e-01  4.6401e-06  0:02:04 1283
   718  4.8758e-06  3.1252e-04  1.9912e-06  1.3957e-01  4.8534e-06  0:01:39 1282
   719  5.0312e-06  3.1085e-04  2.0211e-06  1.4086e-01  5.0114e-06  0:01:19 1281
   720  5.1290e-06  3.0921e-04  2.0506e-06  1.4298e-01  5.1113e-06  0:01:04 1280
   721  5.1684e-06  3.0758e-04  2.0759e-06  1.4587e-01  5.1526e-06  0:00:51 1279
   722  5.1512e-06  3.0598e-04  2.0949e-06  1.4901e-01  5.1371e-06  0:00:41 1278
   723  5.0807e-06  3.0441e-04  2.1073e-06  1.5068e-01  5.0683e-06  0:04:48 1277
   724  4.9565e-06  3.0286e-04  2.1145e-06  1.5112e-01  4.9456e-06  0:03:50 1276
   725  4.7818e-06  3.0134e-04  2.1142e-06  1.5103e-01  4.7724e-06  0:03:04 1275
   726  4.5614e-06  2.9985e-04  2.1068e-06  1.5155e-01  4.5531e-06  0:02:27 1274

  iter  continuity  x-velocity  y-velocity  z-velocity      energy     time/iter
   727  4.2993e-06  2.9838e-04  2.0956e-06  1.5269e-01  4.2911e-06  0:01:58 1273
   728  4.0004e-06  2.9695e-04  2.0760e-06  1.5423e-01  3.9922e-06  0:01:34 1272
   729  3.6714e-06  2.9551e-04  2.0467e-06  1.5537e-01  3.6636e-06  0:01:15 1271
   730  3.3215e-06  2.9409e-04  2.0111e-06  1.5533e-01  3.3142e-06  0:01:00 1270
   731  2.9567e-06  2.9270e-04  1.9731e-06  1.5453e-01  2.9495e-06  0:00:48 1269
   732  2.5869e-06  2.9134e-04  1.9324e-06  1.5361e-01  2.5792e-06  0:04:52 1268
   733  2.2262e-06  2.9000e-04  1.8910e-06  1.5288e-01  2.2169e-06  0:03:53 1267
   734  1.8957e-06  2.8869e-04  1.8449e-06  1.5238e-01  1.8852e-06  0:03:07 1266
   735  1.6239e-06  2.8741e-04  1.7990e-06  1.5201e-01  1.6126e-06  0:02:29 1265
   736  1.4503e-06  2.8615e-04  1.7559e-06  1.5171e-01  1.4385e-06  0:01:59 1264
   737  1.4096e-06  2.8491e-04  1.7178e-06  1.5149e-01  1.3977e-06  0:01:35 1263

  iter  continuity  x-velocity  y-velocity  z-velocity      energy     time/iter
   738  1.5039e-06  2.8370e-04  1.6853e-06  1.5132e-01  1.4932e-06  0:01:16 1262
   739  1.6981e-06  2.8251e-04  1.6595e-06  1.5113e-01  1.6890e-06  0:01:01 1261
   740  1.9483e-06  2.8135e-04  1.6412e-06  1.5094e-01  1.9402e-06  0:00:49 1260
   741  2.2206e-06  2.8021e-04  1.6307e-06  1.5078e-01  2.2135e-06  0:04:51 1259
   742  2.4930e-06  2.7910e-04  1.6275e-06  1.5065e-01  2.4866e-06  0:03:52 1258
   743  2.7515e-06  2.7800e-04  1.6306e-06  1.5054e-01  2.7459e-06  0:03:06 1257
   744  2.9845e-06  2.7689e-04  1.6403e-06  1.5045e-01  2.9776e-06  0:02:28 1256
   745  3.1866e-06  2.7581e-04  1.6524e-06  1.5053e-01  3.1763e-06  0:01:59 1255
   746  3.3775e-06  2.7490e-04  1.6667e-06  1.5064e-01  3.3693e-06  0:01:35 1254
   747  3.5256e-06  2.7402e-04  1.7129e-06  1.5078e-01  3.5172e-06  0:01:16 1253
   748  3.6290e-06  2.7314e-04  1.7624e-06  1.5085e-01  3.6194e-06  0:01:01 1252

  iter  continuity  x-velocity  y-velocity  z-velocity      energy     time/iter
   749  3.6960e-06  2.7231e-04  1.7965e-06  1.5079e-01  3.6862e-06  0:00:48 1251
   750  3.7505e-06  2.7147e-04  1.8226e-06  1.5090e-01  3.7397e-06  0:00:39 1250
   751  3.8970e-06  2.7069e-04  1.8580e-06  1.5212e-01  3.8853e-06  0:04:41 1249
   752  4.1826e-06  2.7004e-04  1.9511e-06  1.6097e-01  4.1695e-06  0:03:44 1248
   753  4.4057e-06  2.6952e-04  2.1115e-06  1.8948e-01  4.3922e-06  0:02:59 1247
   754  4.5811e-06  2.6913e-04  2.2989e-06  2.2794e-01  4.5658e-06  0:02:23 1246
   755  4.2803e-06  2.6851e-04  2.4369e-06  2.5293e-01  4.2668e-06  0:01:55 1245
   756  3.9259e-06  2.6776e-04  2.3704e-06  2.4174e-01  3.9155e-06  0:01:32 1244
   757  3.5009e-06  2.6702e-04  2.2321e-06  1.9788e-01  3.4923e-06  0:01:13 1243
   758  2.9657e-06  2.6619e-04  2.0813e-06  1.6423e-01  2.9577e-06  0:00:59 1242
   759  2.5483e-06  2.6538e-04  1.9056e-06  1.6311e-01  2.5386e-06  0:00:47 1241

  iter  continuity  x-velocity  y-velocity  z-velocity      energy     time/iter
   760  2.2568e-06  2.6455e-04  1.8162e-06  1.7743e-01  2.2394e-06  0:00:37 1240
   761  2.0105e-06  2.6374e-04  1.7659e-06  1.9101e-01  1.9826e-06  0:00:30 1239
   762  1.7885e-06  2.6296e-04  1.7296e-06  1.9883e-01  1.7488e-06  0:00:24 1238
   763  1.6021e-06  2.6220e-04  1.6849e-06  2.0062e-01  1.5511e-06  0:00:19 1237
   764  1.4685e-06  2.6145e-04  1.6358e-06  1.9838e-01  1.4086e-06  0:00:15 1236
   765  1.4233e-06  2.6078e-04  1.5908e-06  1.9380e-01  1.3603e-06  0:00:12 1235
   766  1.4640e-06  2.6016e-04  1.5580e-06  1.8648e-01  1.4007e-06  0:04:17 1234
   767  1.5553e-06  2.5953e-04  1.5345e-06  1.7769e-01  1.4934e-06  0:03:25 1233
   768  1.6862e-06  2.5889e-04  1.5120e-06  1.6913e-01  1.6279e-06  0:02:44 1232
   769  1.8441e-06  2.5825e-04  1.4902e-06  1.6184e-01  1.7909e-06  0:02:11 1231
   770  2.0173e-06  2.5759e-04  1.4756e-06  1.5601e-01  1.9687e-06  0:01:45 1230

  iter  continuity  x-velocity  y-velocity  z-velocity      energy     time/iter
   771  2.1942e-06  2.5693e-04  1.4682e-06  1.5143e-01  2.1497e-06  0:01:24 1229
   772  2.3761e-06  2.5630e-04  1.4657e-06  1.4791e-01  2.3348e-06  0:01:07 1228
   773  2.5602e-06  2.5570e-04  1.4642e-06  1.4505e-01  2.5214e-06  0:00:53 1227
   774  2.7362e-06  2.5512e-04  1.4747e-06  1.4373e-01  2.6994e-06  0:00:43 1226
   775  2.8834e-06  2.5455e-04  1.4931e-06  1.4506e-01  2.8483e-06  0:00:34 1225
   776  2.9352e-06  2.5384e-04  1.5070e-06  1.4773e-01  2.9017e-06  0:00:27 1224
   777  2.9970e-06  2.5310e-04  1.5088e-06  1.4379e-01  2.9655e-06  0:00:22 1223
   778  3.0438e-06  2.5237e-04  1.5234e-06  1.3836e-01  3.0138e-06  0:00:17 1222
   779  3.0922e-06  2.5165e-04  1.5261e-06  1.3834e-01  3.0635e-06  0:00:14 1221
   780  3.1126e-06  2.5095e-04  1.5195e-06  1.4444e-01  3.0842e-06  0:00:11 1220
   781  3.0893e-06  2.5026e-04  1.5186e-06  1.5410e-01  3.0606e-06  0:00:09 1219

  iter  continuity  x-velocity  y-velocity  z-velocity      energy     time/iter
   782  3.0320e-06  2.4958e-04  1.5092e-06  1.6372e-01  3.0023e-06  0:00:07 1218
   783  2.9499e-06  2.4890e-04  1.4858e-06  1.6754e-01  2.9186e-06  0:00:06 1217
   784  2.8453e-06  2.4826e-04  1.4783e-06  1.6191e-01  2.8108e-06  0:00:05 1216
   785  2.7082e-06  2.4749e-04  1.4306e-06  1.5275e-01  2.6716e-06  0:00:04 1215
   786  2.5457e-06  2.4664e-04  1.3967e-06  1.4604e-01  2.5075e-06  0:04:06 1214
   787  2.4143e-06  2.4574e-04  1.3938e-06  1.4651e-01  2.3747e-06  0:03:16 1213
   788  2.3990e-06  2.4508e-04  1.5206e-06  1.5842e-01  2.3540e-06  0:02:37 1212
   789  2.4970e-06  2.4436e-04  1.6012e-06  1.7320e-01  2.4535e-06  0:02:05 1211
   790  2.5647e-06  2.4356e-04  1.5653e-06  1.9303e-01  2.5255e-06  0:01:40 1210
   791  2.5982e-06  2.4273e-04  1.5600e-06  2.1687e-01  2.5636e-06  0:01:20 1209
   792  2.6411e-06  2.4192e-04  1.5937e-06  2.3857e-01  2.6106e-06  0:01:04 1208

  iter  continuity  x-velocity  y-velocity  z-velocity      energy     time/iter
   793  2.6962e-06  2.4117e-04  1.6542e-06  2.5573e-01  2.6692e-06  0:00:51 1207
   794  2.6957e-06  2.4044e-04  1.7193e-06  2.6490e-01  2.6713e-06  0:00:41 1206
   795  2.5800e-06  2.3968e-04  1.7392e-06  2.6456e-01  2.5573e-06  0:00:33 1205
   796  2.5040e-06  2.3891e-04  1.7255e-06  2.5010e-01  2.4832e-06  0:00:26 1204
   797  2.4626e-06  2.3815e-04  1.7082e-06  2.2037e-01  2.4432e-06  0:00:21 1203
   798  2.3737e-06  2.3737e-04  1.6828e-06  1.8254e-01  2.3544e-06  0:00:17 1202
   799  2.2464e-06  2.3653e-04  1.6411e-06  1.4986e-01  2.2258e-06  0:00:13 1201
   800  2.0203e-06  2.3560e-04  1.5571e-06  1.4486e-01  1.9969e-06  0:00:11 1200
   801  1.8496e-06  2.3463e-04  1.4506e-06  1.6786e-01  1.8225e-06  0:00:09 1199
   802  1.8048e-06  2.3364e-04  1.3459e-06  1.9481e-01  1.7748e-06  0:00:07 1198
   803  1.8377e-06  2.3266e-04  1.2767e-06  2.1196e-01  1.8063e-06  0:00:05 1197

  iter  continuity  x-velocity  y-velocity  z-velocity      energy     time/iter
   804  1.8923e-06  2.3168e-04  1.2436e-06  2.1664e-01  1.8609e-06  0:00:04 1196
   805  1.9449e-06  2.3071e-04  1.2264e-06  2.1194e-01  1.9139e-06  0:04:02 1195
   806  1.9866e-06  2.2974e-04  1.2177e-06  2.0121e-01  1.9559e-06  0:03:14 1194
   807  2.0127e-06  2.2877e-04  1.2127e-06  1.8664e-01  1.9820e-06  0:02:35 1193
   808  2.0212e-06  2.2781e-04  1.2086e-06  1.7132e-01  1.9906e-06  0:02:04 1192
   809  2.0124e-06  2.2684e-04  1.2042e-06  1.5832e-01  1.9817e-06  0:01:39 1191
[...]

  iter  continuity  x-velocity  y-velocity  z-velocity      energy     time/iter
  1794  3.5063e-06  6.5742e-05  4.0334e-06  2.7134e+00  3.5037e-06  0:00:21  206
  1795  3.5087e-06  6.7969e-05  4.1777e-06  2.6571e+00  3.5062e-06  0:00:17  205
  1796  3.5678e-06  7.0277e-05  4.2157e-06  2.6064e+00  3.5656e-06  0:00:14  204
  1797  3.6318e-06  7.2663e-05  4.2987e-06  2.5582e+00  3.6297e-06  0:00:11  203
  1798  3.6972e-06  7.5151e-05  4.4391e-06  2.5134e+00  3.6952e-06  0:00:09  202
  1799  3.3906e-06  7.5127e-05  4.5503e-06  2.4758e+00  3.3890e-06  0:00:07  201
  1800  4.3595e-06  7.3199e-05  4.4788e-06  2.4366e+00  4.3592e-06  0:00:05  200
  1801  5.4534e-06  7.4081e-05  4.4656e-06  2.3876e+00  5.4530e-06  0:00:04  199
  1802  5.9130e-06  7.5099e-05  4.6106e-06  2.3383e+00  5.9119e-06  0:00:03  198
  1803  6.0099e-06  7.5713e-05  4.7309e-06  2.2919e+00  6.0079e-06  0:00:03  197
  1804  5.9436e-06  7.5948e-05  4.7969e-06  2.2459e+00  5.9409e-06  0:00:02  196

  iter  continuity  x-velocity  y-velocity  z-velocity      energy     time/iter
  1805  5.8143e-06  7.5923e-05  4.8231e-06  2.1993e+00  5.8112e-06  0:00:02  195
  1806  5.6450e-06  7.5627e-05  4.7956e-06  2.1504e+00  5.6417e-06  0:00:01  194
  1807  5.5014e-06  7.5303e-05  4.6644e-06  2.1001e+00  5.4980e-06  0:00:01  193
  1808  5.3850e-06  7.4960e-05  4.6276e-06  2.0474e+00  5.3816e-06  0:00:01  192
  1809  5.2922e-06  7.4618e-05  4.6020e-06  1.9917e+00  5.2891e-06  0:00:39  191
  1810  5.2305e-06  7.4301e-05  4.5762e-06  1.9353e+00  5.2277e-06  0:00:31  190
  1811  5.2061e-06  7.4028e-05  4.5506e-06  1.8809e+00  5.2037e-06  0:00:25  189
  1812  5.2215e-06  7.3806e-05  4.5275e-06  1.8273e+00  5.2193e-06  0:00:20  188
  1813  5.2748e-06  7.3639e-05  4.5092e-06  1.7773e+00  5.2725e-06  0:00:16  187
  1814  5.3611e-06  7.3519e-05  4.4975e-06  1.7316e+00  5.3588e-06  0:00:12  186
  1815  5.4736e-06  7.3438e-05  4.4937e-06  1.6902e+00  5.4712e-06  0:00:10  185

  iter  continuity  x-velocity  y-velocity  z-velocity      energy     time/iter
  1816  5.6049e-06  7.3386e-05  4.4979e-06  1.6548e+00  5.6022e-06  0:00:08  184
  1817  5.7404e-06  7.3343e-05  4.5135e-06  1.6284e+00  5.7375e-06  0:00:06  183
  1818  5.8822e-06  7.3311e-05  4.5431e-06  1.6143e+00  5.8789e-06  0:00:05  182
  1819  6.0314e-06  7.3294e-05  4.5648e-06  1.6131e+00  6.0277e-06  0:00:04  181
  1820  6.1782e-06  7.3270e-05  4.5856e-06  1.6227e+00  6.1741e-06  0:00:03  180
  1821  5.9313e-06  7.1590e-05  4.5618e-06  1.6427e+00  5.9267e-06  0:00:03  179
  1822  5.2282e-06  6.7766e-05  4.4137e-06  1.6653e+00  5.2234e-06  0:00:02  178
  1823  4.8852e-06  6.4941e-05  4.1799e-06  1.6764e+00  4.8803e-06  0:00:02  177
  1824  4.7012e-06  6.2645e-05  3.9475e-06  1.6816e+00  4.6965e-06  0:00:01  176
  1825  4.5774e-06  6.0657e-05  3.7451e-06  1.6854e+00  4.5729e-06  0:00:01  175
  1826  4.4696e-06  5.8876e-05  3.5734e-06  1.6929e+00  4.4653e-06  0:00:01  174

  iter  continuity  x-velocity  y-velocity  z-velocity      energy     time/iter
  1827  4.2880e-06  5.7131e-05  3.3051e-06  1.7048e+00  4.2842e-06  0:00:35  173
  1828  4.2118e-06  5.6087e-05  2.9697e-06  1.7128e+00  4.2088e-06  0:00:28  172
  1829  4.1514e-06  5.5522e-05  2.7752e-06  1.7037e+00  4.1491e-06  0:00:22  171
  1830  4.0964e-06  5.5193e-05  2.6993e-06  1.6853e+00  4.0945e-06  0:00:18  170
  1831  4.0583e-06  5.5052e-05  2.6839e-06  1.6640e+00  4.0567e-06  0:00:14  169
  1832  4.0331e-06  5.5068e-05  2.7064e-06  1.6427e+00  4.0316e-06  0:00:11  168
  1833  4.0136e-06  5.5207e-05  2.7542e-06  1.6231e+00  4.0119e-06  0:00:09  167
  1834  3.9952e-06  5.5411e-05  2.8156e-06  1.6053e+00  3.9933e-06  0:00:07  166
  1835  3.9778e-06  5.5691e-05  2.8822e-06  1.5889e+00  3.9758e-06  0:00:06  165
  1836  3.9617e-06  5.6025e-05  2.9491e-06  1.5731e+00  3.9595e-06  0:00:04  164
  1837  3.9463e-06  5.6388e-05  3.0113e-06  1.5570e+00  3.9439e-06  0:00:04  163

  iter  continuity  x-velocity  y-velocity  z-velocity      energy     time/iter
  1838  3.9332e-06  5.6756e-05  3.0671e-06  1.5405e+00  3.9305e-06  0:00:03  162
  1839  3.9217e-06  5.7105e-05  3.1167e-06  1.5235e+00  3.9189e-06  0:00:02  161
  1840  3.9112e-06  5.7436e-05  3.1610e-06  1.5063e+00  3.9083e-06  0:00:02  160
  1841  3.9021e-06  5.7766e-05  3.2004e-06  1.4890e+00  3.8993e-06  0:00:01  159
  1842  3.8945e-06  5.8096e-05  3.2354e-06  1.4712e+00  3.8917e-06  0:00:01  158
  1843  3.8887e-06  5.8422e-05  3.2666e-06  1.4530e+00  3.8860e-06  0:00:01  157
  1844  3.8849e-06  5.8740e-05  3.2948e-06  1.4343e+00  3.8823e-06  0:00:01  156
  1845  3.8838e-06  5.9060e-05  3.3206e-06  1.4162e+00  3.8813e-06  0:00:32  155
  1846  3.8867e-06  5.9420e-05  3.3454e-06  1.3984e+00  3.8843e-06  0:00:25  154
  1847  3.8885e-06  5.9698e-05  3.3665e-06  1.3812e+00  3.8862e-06  0:00:20  153
  1848  3.8946e-06  5.9956e-05  3.3842e-06  1.3634e+00  3.8924e-06  0:00:16  152

  iter  continuity  x-velocity  y-velocity  z-velocity      energy     time/iter
  1849  3.9051e-06  6.0204e-05  3.3992e-06  1.3458e+00  3.9031e-06  0:00:13  151
  1850  3.9208e-06  6.0438e-05  3.4126e-06  1.3288e+00  3.9189e-06  0:00:10  150
  1851  3.9432e-06  6.0670e-05  3.4251e-06  1.3126e+00  3.9414e-06  0:00:08  149
  1852  3.9286e-06  6.0776e-05  3.3744e-06  1.2966e+00  3.9268e-06  0:00:06  148
  1853  3.9586e-06  6.0994e-05  3.2934e-06  1.2829e+00  3.9568e-06  0:00:05  147
  1854  4.0190e-06  6.1328e-05  3.2277e-06  1.2720e+00  4.0172e-06  0:00:04  146
  1855  4.1054e-06  6.1733e-05  3.1833e-06  1.2641e+00  4.1036e-06  0:00:03  145
  1856  4.2046e-06  6.2194e-05  3.1562e-06  1.2585e+00  4.2026e-06  0:00:03  144
  1857  4.3078e-06  6.2688e-05  3.1376e-06  1.2542e+00  4.3058e-06  0:00:02  143
  1858  4.4177e-06  6.3158e-05  3.1229e-06  1.2508e+00  4.4156e-06  0:00:02  142
  1859  4.5575e-06  6.3702e-05  3.1229e-06  1.2456e+00  4.5553e-06  0:00:01  141

  iter  continuity  x-velocity  y-velocity  z-velocity      energy     time/iter
  1860  4.7093e-06  6.4371e-05  3.1365e-06  1.2369e+00  4.7069e-06  0:00:01  140
  1861  4.8656e-06  6.5142e-05  3.1638e-06  1.2240e+00  4.8632e-06  0:00:01  139
  1862  5.0263e-06  6.6019e-05  3.2062e-06  1.2098e+00  5.0238e-06  0:00:01  138
  1863  5.1925e-06  6.7008e-05  3.2649e-06  1.1968e+00  5.1899e-06  0:00:01  137
  1864  5.3743e-06  6.8135e-05  3.3410e-06  1.1866e+00  5.3716e-06  0:00:00  136
  1865  5.5467e-06  6.9342e-05  3.4373e-06  1.1788e+00  5.5438e-06  0:00:27  135
  1866  5.7096e-06  7.0611e-05  3.5438e-06  1.1741e+00  5.7066e-06  0:00:22  134
  1867  5.8626e-06  7.1919e-05  3.6565e-06  1.1717e+00  5.8596e-06  0:00:17  133
  1868  6.0033e-06  7.3238e-05  3.7746e-06  1.1720e+00  6.0002e-06  0:00:14  132
  1869  6.1278e-06  7.4534e-05  3.8957e-06  1.1740e+00  6.1247e-06  0:00:11  131
  1870  6.2328e-06  7.5772e-05  4.0161e-06  1.1768e+00  6.2296e-06  0:00:09  130

  iter  continuity  x-velocity  y-velocity  z-velocity      energy     time/iter
  1871  5.9721e-06  7.5019e-05  4.0651e-06  1.1795e+00  5.9688e-06  0:00:07  129
  1872  5.7405e-06  7.3584e-05  4.0345e-06  1.1854e+00  5.7371e-06  0:00:05  128
  1873  5.6548e-06  7.2421e-05  3.9984e-06  1.1972e+00  5.6513e-06  0:00:04  127
  1874  5.5549e-06  7.1166e-05  3.9606e-06  1.2133e+00  5.5513e-06  0:00:03  126
  1875  5.4123e-06  6.9749e-05  3.8994e-06  1.2299e+00  5.4087e-06  0:00:03  125
  1876  5.2310e-06  6.8170e-05  3.8083e-06  1.2431e+00  5.2273e-06  0:00:02  124
  1877  5.0435e-06  6.6173e-05  3.6745e-06  1.2495e+00  5.0397e-06  0:00:02  123
  1878  4.9223e-06  6.4247e-05  3.5406e-06  1.2459e+00  4.9185e-06  0:00:01  122
  1879  4.7631e-06  6.2348e-05  3.4215e-06  1.2331e+00  4.7593e-06  0:00:01  121
  1880  4.5660e-06  6.0441e-05  3.3012e-06  1.2135e+00  4.5623e-06  0:00:01  120
  1881  4.3527e-06  5.8565e-05  3.1785e-06  1.1895e+00  4.3491e-06  0:00:24  119

  iter  continuity  x-velocity  y-velocity  z-velocity      energy     time/iter
  1882  4.1373e-06  5.6764e-05  3.0574e-06  1.1623e+00  4.1338e-06  0:00:19  118
  1883  3.9326e-06  5.5076e-05  2.9389e-06  1.1323e+00  3.9293e-06  0:00:15  117
  1884  3.7504e-06  5.3510e-05  2.8245e-06  1.1041e+00  3.7472e-06  0:00:12  116
  1885  3.5759e-06  5.2055e-05  2.7171e-06  1.0791e+00  3.5729e-06  0:00:10  115
  1886  3.4055e-06  5.0725e-05  2.6140e-06  1.0577e+00  3.4026e-06  0:00:08  114
  1887  3.2509e-06  4.9530e-05  2.5111e-06  1.0411e+00  3.2482e-06  0:00:06  113
  1888  3.1107e-06  4.8478e-05  2.4124e-06  1.0304e+00  3.1081e-06  0:00:05  112
  1889  2.9844e-06  4.7576e-05  2.3207e-06  1.0227e+00  2.9820e-06  0:00:04  111
  1890  2.8707e-06  4.6827e-05  2.2362e-06  1.0174e+00  2.8683e-06  0:00:03  110
  1891  2.7090e-06  4.5875e-05  2.1596e-06  1.0142e+00  2.7067e-06  0:00:02  109
  1892  2.5799e-06  4.5056e-05  2.0529e-06  1.0109e+00  2.5776e-06  0:00:02  108

  iter  continuity  x-velocity  y-velocity  z-velocity      energy     time/iter
  1893  2.4710e-06  4.4388e-05  1.9552e-06  1.0072e+00  2.4689e-06  0:00:02  107
  1894  2.3756e-06  4.3851e-05  1.8755e-06  1.0036e+00  2.3734e-06  0:00:01  106
  1895  2.2896e-06  4.3428e-05  1.8096e-06  9.9935e-01  2.2875e-06  0:00:01  105
  1896  2.1874e-06  4.2903e-05  1.7523e-06  9.9429e-01  2.1854e-06  0:00:01  104
  1897  2.0633e-06  4.2129e-05  1.6885e-06  9.8759e-01  2.0614e-06  0:00:01  103
  1898  1.9420e-06  4.1179e-05  1.6103e-06  9.7886e-01  1.9401e-06  0:00:21  102
  1899  1.8351e-06  4.0096e-05  1.5286e-06  9.6763e-01  1.8334e-06  0:00:17  101
  1900  1.7475e-06  3.8942e-05  1.4547e-06  9.5461e-01  1.7458e-06  0:00:13  100
  1901  1.6768e-06  3.7774e-05  1.3938e-06  9.4156e-01  1.6753e-06  0:00:10   99
  1902  1.6177e-06  3.6633e-05  1.3445e-06  9.2923e-01  1.6162e-06  0:00:08   98
  1903  1.5647e-06  3.5546e-05  1.3029e-06  9.1637e-01  1.5634e-06  0:00:07   97

  iter  continuity  x-velocity  y-velocity  z-velocity      energy     time/iter
  1904  1.5146e-06  3.4525e-05  1.2654e-06  9.0223e-01  1.5134e-06  0:00:05   96
  1905  1.4660e-06  3.3574e-05  1.2300e-06  8.8728e-01  1.4648e-06  0:00:04   95
  1906  1.4187e-06  3.2692e-05  1.1958e-06  8.7113e-01  1.4176e-06  0:00:03   94
  1907  1.3730e-06  3.1877e-05  1.1632e-06  8.5451e-01  1.3720e-06  0:00:03   93
  1908  1.3294e-06  3.1122e-05  1.1323e-06  8.3822e-01  1.3284e-06  0:00:02   92
  1909  1.2881e-06  3.0429e-05  1.1029e-06  8.2315e-01  1.2871e-06  0:00:02   91
  1910  1.2494e-06  2.9792e-05  1.0753e-06  8.0928e-01  1.2484e-06  0:00:01   90
  1911  1.2134e-06  2.9207e-05  1.0497e-06  7.9636e-01  1.2124e-06  0:00:01   89
  1912  1.1797e-06  2.8652e-05  1.0260e-06  7.8215e-01  1.1788e-06  0:00:01   88
  1913  1.1486e-06  2.8108e-05  1.0042e-06  7.6528e-01  1.1477e-06  0:00:01   87
  1914  1.1207e-06  2.7604e-05  9.8422e-07  7.4771e-01  1.1197e-06  0:00:00   86

  iter  continuity  x-velocity  y-velocity  z-velocity      energy     time/iter
  1915  1.0955e-06  2.7135e-05  9.6648e-07  7.3081e-01  1.0946e-06  0:00:00   85
  1916  1.0730e-06  2.6697e-05  9.5074e-07  7.1531e-01  1.0721e-06  0:00:17   84
  1917  1.0530e-06  2.6286e-05  9.3681e-07  7.0130e-01  1.0521e-06  0:00:14   83
  1918  1.0353e-06  2.5900e-05  9.2454e-07  6.8953e-01  1.0344e-06  0:00:11   82
  1919  1.0199e-06  2.5539e-05  9.1384e-07  6.8052e-01  1.0190e-06  0:00:08   81
  1920  1.0066e-06  2.5199e-05  9.0458e-07  6.7362e-01  1.0057e-06  0:00:07   80
  1921  9.9532e-07  2.4879e-05  8.9663e-07  6.6831e-01  9.9436e-07  0:00:05   79
  1922  9.8590e-07  2.4578e-05  8.8986e-07  6.6471e-01  9.8492e-07  0:00:04   78
  1923  9.7835e-07  2.4294e-05  8.8420e-07  6.6262e-01  9.7734e-07  0:00:03   77
  1924  9.7243e-07  2.4027e-05  8.7960e-07  6.6189e-01  9.7139e-07  0:00:03   76
  1925  9.6818e-07  2.3774e-05  8.7595e-07  6.6221e-01  9.6708e-07  0:00:02   75

  iter  continuity  x-velocity  y-velocity  z-velocity      energy     time/iter
  1926  9.6552e-07  2.3535e-05  8.7330e-07  6.6337e-01  9.6437e-07  0:00:02   74
  1927  9.6402e-07  2.3307e-05  8.7175e-07  6.6519e-01  9.6282e-07  0:00:01   73
  1928  9.6383e-07  2.3091e-05  8.7080e-07  6.6676e-01  9.6258e-07  0:00:01   72
  1929  9.6486e-07  2.2887e-05  8.7052e-07  6.6812e-01  9.6357e-07  0:00:01   71
  1930  9.6707e-07  2.2693e-05  8.7085e-07  6.6956e-01  9.6573e-07  0:00:01   70
  1931  9.7037e-07  2.2508e-05  8.7184e-07  6.7102e-01  9.6899e-07  0:00:00   69
  1932  9.7453e-07  2.2332e-05  8.7361e-07  6.7243e-01  9.7310e-07  0:00:00   68
  1933  9.7937e-07  2.2163e-05  8.7600e-07  6.7377e-01  9.7789e-07  0:00:14   67
  1934  9.8493e-07  2.2003e-05  8.7886e-07  6.7500e-01  9.8341e-07  0:00:11   66
  1935  9.9271e-07  2.1864e-05  8.8345e-07  6.7628e-01  9.9114e-07  0:00:09   65
  1936  1.0045e-06  2.1740e-05  8.8878e-07  6.7842e-01  1.0029e-06  0:00:07   64

  iter  continuity  x-velocity  y-velocity  z-velocity      energy     time/iter
  1937  1.0171e-06  2.1625e-05  8.9558e-07  6.8149e-01  1.0154e-06  0:00:05   63
  1938  1.0295e-06  2.1520e-05  9.0344e-07  6.8523e-01  1.0278e-06  0:00:04   62
  1939  1.0415e-06  2.1424e-05  9.1203e-07  6.8952e-01  1.0398e-06  0:00:03   61
  1940  1.0533e-06  2.1338e-05  9.2119e-07  6.9443e-01  1.0515e-06  0:00:03   60
  1941  1.0647e-06  2.1261e-05  9.3062e-07  6.9973e-01  1.0629e-06  0:00:02   59
  1942  1.0756e-06  2.1191e-05  9.4017e-07  7.0550e-01  1.0737e-06  0:00:02   58
  1943  1.0859e-06  2.1129e-05  9.4969e-07  7.1183e-01  1.0840e-06  0:00:01   57
  1944  1.0956e-06  2.1076e-05  9.5915e-07  7.1866e-01  1.0937e-06  0:00:01   56
  1945  1.1047e-06  2.1031e-05  9.6850e-07  7.2599e-01  1.1027e-06  0:00:01   55
  1946  1.1132e-06  2.0995e-05  9.7767e-07  7.3368e-01  1.1112e-06  0:00:01   54
  1947  1.1211e-06  2.0968e-05  9.8670e-07  7.4153e-01  1.1191e-06  0:00:00   53

  iter  continuity  x-velocity  y-velocity  z-velocity      energy     time/iter
  1948  1.1127e-06  2.0919e-05  9.9424e-07  7.4945e-01  1.1107e-06  0:00:00   52
  1949  1.1061e-06  2.0880e-05  9.9379e-07  7.5716e-01  1.1041e-06  0:00:00   51
  1950  1.1076e-06  2.0871e-05  9.9362e-07  7.6450e-01  1.1056e-06  0:00:00   50
  1951  1.1118e-06  2.0880e-05  9.9966e-07  7.7169e-01  1.1099e-06  0:00:00   49
  1952  1.1173e-06  2.0905e-05  1.0086e-06  7.7870e-01  1.1153e-06  0:00:00   48
  1953  1.1233e-06  2.0941e-05  1.0187e-06  7.8555e-01  1.1214e-06  0:00:00   47
  1954  1.1298e-06  2.0991e-05  1.0292e-06  7.9246e-01  1.1279e-06  0:00:09   46
  1955  1.1367e-06  2.1055e-05  1.0400e-06  7.9931e-01  1.1348e-06  0:00:07   45
  1956  1.1440e-06  2.1131e-05  1.0511e-06  8.0664e-01  1.1421e-06  0:00:06   44
  1957  1.1518e-06  2.1222e-05  1.0625e-06  8.1426e-01  1.1500e-06  0:00:04   43
  1958  1.1604e-06  2.1328e-05  1.0743e-06  8.2202e-01  1.1587e-06  0:00:03   42

  iter  continuity  x-velocity  y-velocity  z-velocity      energy     time/iter
  1959  1.1700e-06  2.1449e-05  1.0867e-06  8.3019e-01  1.1682e-06  0:00:03   41
  1960  1.1806e-06  2.1586e-05  1.0999e-06  8.3851e-01  1.1789e-06  0:00:02   40
  1961  1.1924e-06  2.1739e-05  1.1139e-06  8.4679e-01  1.1908e-06  0:00:02   39
  1962  1.2057e-06  2.1909e-05  1.1288e-06  8.5485e-01  1.2041e-06  0:00:01   38
  1963  1.2205e-06  2.2095e-05  1.1449e-06  8.6255e-01  1.2190e-06  0:00:01   37
  1964  1.2370e-06  2.2297e-05  1.1619e-06  8.6981e-01  1.2355e-06  0:00:01   36
  1965  1.2552e-06  2.2517e-05  1.1801e-06  8.7651e-01  1.2537e-06  0:00:01   35
  1966  1.2752e-06  2.2754e-05  1.1993e-06  8.8255e-01  1.2738e-06  0:00:00   34
  1967  1.2971e-06  2.3009e-05  1.2198e-06  8.8783e-01  1.2957e-06  0:00:00   33
  1968  1.3210e-06  2.3283e-05  1.2417e-06  8.9237e-01  1.3197e-06  0:00:00   32
  1969  1.3469e-06  2.3577e-05  1.2650e-06  8.9617e-01  1.3456e-06  0:00:06   31

  iter  continuity  x-velocity  y-velocity  z-velocity      energy     time/iter
  1970  1.3749e-06  2.3891e-05  1.2897e-06  8.9946e-01  1.3736e-06  0:00:05   30
  1971  1.4050e-06  2.4221e-05  1.3158e-06  9.0233e-01  1.4038e-06  0:00:04   29
  1972  1.4373e-06  2.4571e-05  1.3434e-06  9.0495e-01  1.4361e-06  0:00:03   28
  1973  1.4719e-06  2.4944e-05  1.3725e-06  9.0762e-01  1.4707e-06  0:00:02   27
  1974  1.5087e-06  2.5339e-05  1.4032e-06  9.1043e-01  1.5075e-06  0:00:02   26
  1975  1.5478e-06  2.5756e-05  1.4354e-06  9.1314e-01  1.5466e-06  0:00:01   25
  1976  1.5894e-06  2.6197e-05  1.4692e-06  9.1575e-01  1.5882e-06  0:00:01   24
  1977  1.6334e-06  2.6660e-05  1.5061e-06  9.1820e-01  1.6322e-06  0:00:01   23
  1978  1.6706e-06  2.7135e-05  1.5322e-06  9.2037e-01  1.6694e-06  0:00:01   22
  1979  1.7184e-06  2.7657e-05  1.5567e-06  9.2196e-01  1.7172e-06  0:00:00   21
  1980  1.7717e-06  2.8212e-05  1.5872e-06  9.2319e-01  1.7705e-06  0:00:00   20

  iter  continuity  x-velocity  y-velocity  z-velocity      energy     time/iter
  1981  1.8296e-06  2.8795e-05  1.6198e-06  9.2451e-01  1.8284e-06  0:00:00   19
  1982  1.8953e-06  2.9398e-05  1.6594e-06  9.2632e-01  1.8940e-06  0:00:00   18
  1983  1.9675e-06  3.0024e-05  1.7040e-06  9.2900e-01  1.9662e-06  0:00:00   17
  1984  2.0463e-06  3.0693e-05  1.7525e-06  9.3302e-01  2.0449e-06  0:00:00   16
  1985  2.1319e-06  3.1407e-05  1.8048e-06  9.3886e-01  2.1305e-06  0:00:00   15
  1986  2.2246e-06  3.2169e-05  1.8612e-06  9.4712e-01  2.2231e-06  0:00:00   14
  1987  2.3247e-06  3.2981e-05  1.9219e-06  9.5844e-01  2.3231e-06  0:00:00   13
  1988  2.4321e-06  3.3848e-05  1.9870e-06  9.7341e-01  2.4304e-06  0:00:00   12
  1989  2.4862e-06  3.4702e-05  1.9908e-06  9.9197e-01  2.4845e-06  0:00:02   11
  1990  2.5684e-06  3.5821e-05  1.9737e-06  1.0103e+00  2.5667e-06  0:00:02   10
  1991  2.6666e-06  3.7144e-05  2.0046e-06  1.0255e+00  2.6651e-06  0:00:01    9

  iter  continuity  x-velocity  y-velocity  z-velocity      energy     time/iter
  1992  2.8107e-06  3.8581e-05  1.9440e-06  1.0399e+00  2.8093e-06  0:00:01    8
  1993  2.9633e-06  4.0175e-05  2.0434e-06  1.0225e+00  2.9619e-06  0:00:01    7
  1994  3.1173e-06  4.1937e-05  2.1774e-06  1.0080e+00  3.1159e-06  0:00:00    6
  1995  3.2807e-06  4.3874e-05  2.3186e-06  9.9026e-01  3.2793e-06  0:00:00    5
  1996  3.4591e-06  4.5994e-05  2.4813e-06  9.7132e-01  3.4577e-06  0:00:00    4
  1997  3.6549e-06  4.8313e-05  2.6594e-06  9.5730e-01  3.6534e-06  0:00:00    3
  1998  3.8712e-06  5.0848e-05  2.8567e-06  9.4688e-01  3.8697e-06  0:00:00    2
  1999  4.1105e-06  5.3616e-05  3.0740e-06  9.3929e-01  4.1089e-06  0:00:00    1
  2000  4.2789e-06  5.6257e-05  3.2719e-06  9.3413e-01  4.2772e-06  0:00:00    0

> 
adjoint/                parallel/               server/
define/                 parametric-study/       solve/
display/                plot/                   surface/
exit                    preferences/            turbo-workflow/
file/                   print-license-usage     views/
mesh/                   report/

> /file/write-case-data project1
Fast-loading "C:\PROGRA~1\ANSYSI~1\v231\fluent\fluent23.1.0\\addons\afd\lib\hdfio.bin"
Done.

Writing to Engs-30669:"C:\Users\kebl7595\Desktop\CFD\Runs\Actual Data\0 degree normal domain\project1.cas.h5" in NODE0 mode and compression level 1 ...
       12996 cells,     1 zone  ...
       43722 faces,     8 zones ...
       17864 nodes,     1 zone  ...
  Done.
Done.

Writing to Engs-30669:"C:\Users\kebl7595\Desktop\CFD\Runs\Actual Data\0 degree normal domain\project1.dat.h5" in NODE0 mode and compression level 1 ...
  Writing results.
Done.

> /file/export/ascii "./surface.dat" wing te () no pressure mach-number quit no

Writing "./surface.dat"...

Writing information to ascii file ...
Done.


> /plot/plot y "data.dat" no n n pressure-coefficient no n x-coordinate wing ()

> 
adjoint/                parallel/               server/
define/                 parametric-study/       solve/
display/                plot/                   surface/
exit                    preferences/            turbo-workflow/
file/                   print-license-usage     views/
mesh/                   report/

> /exit

Posting ANSYS Product Improvement Program performance data 
Done.
Auto-Transcript Stop Time:  13:59:17, 20 May 2024 GMT Daylight Time 
Total Transcript Time: 2 Minute 29 Second.
