Auto-Transcript Start Time:  12:19:59, 22 May 2024 GMT Daylight Time 
Current Directory: "C:\Users\kebl7595\Desktop\CFD\Runs\Flap\Re 3e5\large AR of 1"

              Welcome to ANSYS Fluent 2023 R1

              Copyright 1987-2023 ANSYS, Inc. All Rights Reserved.
              Unauthorized use, distribution or duplication is prohibited.
              This product is subject to U.S. laws governing export and re-export.
              For full Legal Notice, see documentation.

Build Time: Nov 28 2022 09:52:02 EST  Build Id: 10208  
 
Connected License Server List:	1055@ansyslic.eng.ox.ac.uk

*********************************************
Info: Your license enables 4-way parallel execution.
For faster simulations, please start the application with the appropriate parallel options.
*********************************************


     --------------------------------------------------------------
     This is an academic version of ANSYS FLUENT. Usage of this product
     license is limited to the terms and conditions specified in your ANSYS
     license form, additional terms section.
     --------------------------------------------------------------
Host spawning Node 0 on machine "Engs-30669" (win64).

------------------------------------------------------------------------------------
ID    Hostname    Core  O.S.         PID    Vendor                                 
------------------------------------------------------------------------------------
n0    Engs-30669  1/32  Windows-x64  15704  13th Gen Intel(R) Core(TM) i9-13900    
host  Engs-30669        Windows-x64  8204   13th Gen Intel(R) Core(TM) i9-13900    

MPI Option Selected: intel
------------------------------------------------------------------------------------

Cleanup script file is C:\\Users\\kebl7595\\Desktop\\CFD\\Runs\\Flap\\Re 3e5\\large AR of 1\\cleanup-fluent-Engs-30669-8204.bat

Posting ANSYS Product Improvement Program startup data
Done.

Reading journal file C:/Users/kebl7595/Desktop/CFD/Runs/Flap/Re 3e5/large AR of 1/project1.jou...

> /file/set-batch-options no no no 

> 
define/                 parametric-study/       solve/
display/                plot/                   surface/
exit                    preferences/            switch-to-meshing-mode
file/                   print-license-usage     turbo-workflow/
mesh/                   report/                 views/
parallel/               server/

> /file/import/cgns/mesh  "./project1.cgns"
Engs-30669 has other FLUENT parallel processes running.                       Process affinity not being set.

Importing "./project1.cgns"

Opening library "C:\\PROGRA~1\\ANSYSI~1\\v231\\fluent\\fluent23.1.0\\vki\\win64\\devtools4.4.6.dll"... done.

Read    41568 nodes
   30372 hexahedral cells, zone  1
   21856 quadrilateral wall faces, zone  2.
   79714 quadrilateral interior faces, zone  3.
     474 quadrilateral interface faces, zone  4.

Building...
     mesh
     materials,
     interface,
     domains,
     zones,
	interface-default_subface
	default_interior-1
	default_subface
	default
     parallel,
The automatic selection for flux type has changed to Rhie-Chow: momentum based.

Done.


> 
adjoint/                parallel/               server/
define/                 parametric-study/       solve/
display/                plot/                   surface/
exit                    preferences/            turbo-workflow/
file/                   print-license-usage     views/
mesh/                   report/

> /define/models/solver/density-based-implicit yes

> 
adjoint/                parallel/               server/
define/                 parametric-study/       solve/
display/                plot/                   surface/
exit                    preferences/            turbo-workflow/
file/                   print-license-usage     views/
mesh/                   report/

> /define/models/energy? yes yes invalid command [yes]
yes

> /define/models/viscous/kw-standard? yes

> 
adjoint/                parallel/               server/
define/                 parametric-study/       solve/
display/                plot/                   surface/
exit                    preferences/            turbo-workflow/
file/                   print-license-usage     views/
mesh/                   report/

> /define/materials/change-create air air air is a fluid
yes 
Density
ideal-gas no data required.

no no no no no no

> 
adjoint/                parallel/               server/
define/                 parametric-study/       solve/
display/                plot/                   surface/
exit                    preferences/            turbo-workflow/
file/                   print-license-usage     views/
mesh/                   report/

> /mesh/modify-zones/sep-face-zone-angle 2 90 yes

 10124 faces in contiguous region 0
 567 faces in contiguous region 1
 618 faces in contiguous region 2
 10124 faces in contiguous region 3
 423 faces in contiguous region 4
 Separates zone 2 into 5 zone(s).
Updating new zone information...
   created new zone default_subface:009 from default_subface
   created new zone default_subface:008 from default_subface
   created new zone default_subface:007 from default_subface
   created new zone default_subface:006 from default_subface
done.

> 
adjoint/                parallel/               server/
define/                 parametric-study/       solve/
display/                plot/                   surface/
exit                    preferences/            turbo-workflow/
file/                   print-license-usage     views/
mesh/                   report/

> /define/boundary-conditions/zone-name  6 wing

> /define/boundary-conditions/zone-name  2 sym1

> /define/boundary-conditions/zone-name  8 sym2

> 
adjoint/                parallel/               server/
define/                 parametric-study/       solve/
display/                plot/                   surface/
exit                    preferences/            turbo-workflow/
file/                   print-license-usage     views/
mesh/                   report/

> /define/boundary-conditions/zone-name  7 far1

> /define/boundary-conditions/zone-name 9 far2

> 
adjoint/                parallel/               server/
define/                 parametric-study/       solve/
display/                plot/                   surface/
exit                    preferences/            turbo-workflow/
file/                   print-license-usage     views/
mesh/                   report/

> /define/boundary-conditions/zone-type  7 pressure-far-field

> /define/boundary-conditions/zone-type 9 pressure-far-field

> /define/boundary-conditions/zone-type  2 symmetry

> /define/boundary-conditions/zone-type  8 symmetry

> 
adjoint/                parallel/               server/
define/                 parametric-study/       solve/
display/                plot/                   surface/
exit                    preferences/            turbo-workflow/
file/                   print-license-usage     views/
mesh/                   report/

> /define/boundary-conditions/pressure-far-field (far2 far1)
far1 no -0.8642 no 0.1 no 300 yes no 0.939693 no -0.342020 no 0. no yes 5 0.02

> /define/boundary-conditions/pressure-far-field (far2 far1)
far2 no -0.8642 no 0.1 no 300 yes no 0.939693 no -0.342020 no 0. no yes 5 0.02

> 
adjoint/                parallel/               server/
define/                 parametric-study/       solve/
display/                plot/                   surface/
exit                    preferences/            turbo-workflow/
file/                   print-license-usage     views/
mesh/                   report/

> /solve/initialize/compute-defaults/pressure-far-field (far2 far1)
far1

> /solve/initialize/initialize-flow

> 
adjoint/                parallel/               server/
define/                 parametric-study/       solve/
display/                plot/                   surface/
exit                    preferences/            turbo-workflow/
file/                   print-license-usage     views/
mesh/                   report/

> /solve/monitors/residual/convergence-criteria 1.e-9 1.e-9 1.e-9 1.e-9 1.e-9 1.e-9 1.e-9

> /solve/iterate 2000

  iter  continuity  x-velocity  y-velocity  z-velocity      energy           k       omega     time/iter
     1  1.0000e+00  1.0000e+00  1.0000e+00  1.0000e+00  1.0000e+00  3.8406e-02  3.9690e-02  0:00:00 1999
     2  5.5214e-01  5.5840e-01  4.7838e-01  1.0000e+00  5.5203e-01  3.3791e-02  2.9836e-02  0:00:00 1998
     3  3.1009e-01  3.2410e-01  2.7907e-01  9.4649e-01  3.0991e-01  3.0039e-02  2.5563e-02  0:33:17 1997
     4  2.0194e-01  1.8470e-01  1.9988e-01  8.3264e-01  2.0174e-01  2.7021e-02  2.2654e-02  0:26:37 1996
     5  1.6234e-01  1.2309e-01  1.6440e-01  9.6096e-01  1.6213e-01  2.4574e-02  2.0827e-02  0:21:17 1995
     6  1.4686e-01  9.3460e-02  1.4617e-01  1.0952e+00  1.4663e-01  2.2475e-02  1.9306e-02  0:17:01 1994
     7  1.3322e-01  7.6107e-02  1.3562e-01  1.1993e+00  1.3299e-01  2.0641e-02  1.7990e-02  0:13:36 1993
     8  1.1802e-01  6.4869e-02  1.2696e-01  1.3276e+00  1.1780e-01  1.9067e-02  1.6775e-02  0:10:53 1992
     9  1.0309e-01  5.6887e-02  1.2108e-01  1.4316e+00  1.0288e-01  1.7757e-02  1.5704e-02  0:15:20 1991
    10  9.4870e-02  5.1296e-02  1.1883e-01  1.4918e+00  9.4678e-02  1.6618e-02  1.4796e-02  0:12:16 1990
    11  9.0176e-02  4.6383e-02  1.1986e-01  1.5050e+00  8.9996e-02  1.5618e-02  1.3990e-02  0:09:48 1989

  iter  continuity  x-velocity  y-velocity  z-velocity      energy           k       omega     time/iter
    12  8.5533e-02  4.3086e-02  1.2028e-01  1.4971e+00  8.5370e-02  1.4736e-02  1.3278e-02  0:07:50 1988
    13  8.3189e-02  4.0984e-02  1.2060e-01  1.4964e+00  8.3044e-02  1.3962e-02  1.2620e-02  0:06:16 1987
    14  8.2224e-02  3.8796e-02  1.2314e-01  1.4808e+00  8.2092e-02  1.3287e-02  1.2044e-02  0:05:01 1986
    15  8.0601e-02  3.7115e-02  1.2259e-01  1.4515e+00  8.0481e-02  1.2706e-02  1.1540e-02  0:10:37 1985
    16  8.0248e-02  3.5577e-02  1.2310e-01  1.4412e+00  8.0124e-02  1.2190e-02  1.1058e-02  0:08:30 1984
    17  8.0028e-02  3.4693e-02  1.2271e-01  1.4791e+00  7.9901e-02  1.1740e-02  1.0644e-02  0:06:48 1983
    18  7.9838e-02  3.3177e-02  1.2031e-01  1.4882e+00  7.9708e-02  1.1352e-02  1.0277e-02  0:05:26 1982
    19  8.0083e-02  3.2244e-02  1.1993e-01  1.5126e+00  7.9952e-02  1.1003e-02  9.9561e-03  0:04:21 1981
    20  7.9623e-02  3.1931e-02  1.1850e-01  1.5468e+00  7.9490e-02  1.0706e-02  9.6556e-03  0:03:28 1980
    21  7.9318e-02  3.1182e-02  1.1516e-01  1.5800e+00  7.9177e-02  1.0443e-02  9.3774e-03  0:02:47 1979
    22  7.8501e-02  3.0240e-02  1.1329e-01  1.6084e+00  7.8350e-02  1.0221e-02  9.0980e-03  0:08:49 1978

  iter  continuity  x-velocity  y-velocity  z-velocity      energy           k       omega     time/iter
    23  7.6747e-02  2.8965e-02  1.1066e-01  1.6198e+00  7.6592e-02  1.0026e-02  8.8521e-03  0:07:03 1977
    24  7.4909e-02  2.7464e-02  1.0736e-01  1.6156e+00  7.4748e-02  9.8509e-03  8.6574e-03  0:05:38 1976
    25  7.3087e-02  2.5723e-02  1.0373e-01  1.5896e+00  7.2915e-02  9.6986e-03  8.4643e-03  0:04:30 1975
    26  7.0666e-02  2.4695e-02  1.0163e-01  1.5492e+00  7.0490e-02  9.5660e-03  8.2618e-03  0:03:36 1974
    27  6.7713e-02  2.3561e-02  9.8808e-02  1.4894e+00  6.7535e-02  9.4365e-03  8.0769e-03  0:09:27 1973
    28  6.4322e-02  2.2294e-02  9.6057e-02  1.4134e+00  6.4141e-02  9.3158e-03  7.8732e-03  0:07:34 1972
    29  6.0315e-02  2.1157e-02  9.3589e-02  1.3276e+00  6.0130e-02  9.2044e-03  7.7142e-03  0:06:03 1971
    30  5.5522e-02  2.0550e-02  9.0878e-02  1.2350e+00  5.5340e-02  9.1095e-03  7.5715e-03  0:04:50 1970
    31  5.0586e-02  2.0198e-02  8.7976e-02  1.1445e+00  5.0411e-02  9.0343e-03  7.4230e-03  0:03:52 1969
    32  4.6287e-02  1.9651e-02  8.5195e-02  1.0637e+00  4.6116e-02  8.9581e-03  7.2864e-03  0:03:05 1968
    33  4.3142e-02  1.9082e-02  8.3072e-02  9.9960e-01  4.2971e-02  8.8805e-03  7.1365e-03  0:09:02 1967

  iter  continuity  x-velocity  y-velocity  z-velocity      energy           k       omega     time/iter
    34  4.0865e-02  1.8465e-02  8.1259e-02  9.5477e-01  4.0692e-02  8.8376e-03  7.0222e-03  0:07:13 1966
    35  3.9019e-02  1.8002e-02  7.9759e-02  9.2111e-01  3.8845e-02  8.7911e-03  6.9189e-03  0:05:46 1965
    36  3.7632e-02  1.7536e-02  7.8409e-02  8.9445e-01  3.7458e-02  8.7305e-03  6.8125e-03  0:04:37 1964
    37  3.6549e-02  1.6948e-02  7.7242e-02  8.7151e-01  3.6376e-02  8.6618e-03  6.6920e-03  0:03:41 1963
    38  3.5894e-02  1.6412e-02  7.6463e-02  8.4683e-01  3.5721e-02  8.6202e-03  6.5782e-03  0:02:57 1962
    39  3.5264e-02  1.5905e-02  7.5913e-02  8.1708e-01  3.5095e-02  8.5889e-03  6.4665e-03  0:02:22 1961
    40  3.4447e-02  1.5524e-02  7.5575e-02  7.8028e-01  3.4285e-02  8.5499e-03  6.3861e-03  0:08:25 1960
    41  3.3514e-02  1.5250e-02  7.5351e-02  7.3832e-01  3.3362e-02  8.5018e-03  6.3199e-03  0:06:44 1959
    42  3.2602e-02  1.4956e-02  7.5183e-02  6.9357e-01  3.2458e-02  8.4666e-03  6.2598e-03  0:05:23 1958
    43  3.2043e-02  1.4730e-02  7.5172e-02  6.4702e-01  3.1905e-02  8.4379e-03  6.1842e-03  0:04:18 1957
    44  3.1612e-02  1.4525e-02  7.5219e-02  6.0382e-01  3.1480e-02  8.4047e-03  6.1188e-03  0:03:27 1956

  iter  continuity  x-velocity  y-velocity  z-velocity      energy           k       omega     time/iter
    45  3.1239e-02  1.4421e-02  7.5306e-02  5.6792e-01  3.1111e-02  8.3763e-03  6.0630e-03  0:02:45 1955
    46  3.0917e-02  1.4328e-02  7.5389e-02  5.4974e-01  3.0793e-02  8.3406e-03  6.0317e-03  0:08:43 1954
    47  3.0700e-02  1.4287e-02  7.5447e-02  5.6699e-01  3.0580e-02  8.3166e-03  5.9995e-03  0:06:58 1953
    48  3.0751e-02  1.4207e-02  7.5448e-02  6.1232e-01  3.0632e-02  8.3034e-03  5.9614e-03  0:05:34 1952
    49  3.1194e-02  1.4134e-02  7.5427e-02  6.6812e-01  3.1074e-02  8.2873e-03  5.9247e-03  0:04:27 1951
    50  3.1917e-02  1.4059e-02  7.5347e-02  7.2877e-01  3.1797e-02  8.2698e-03  5.8707e-03  0:03:34 1950
    51  3.2828e-02  1.4005e-02  7.5186e-02  7.9307e-01  3.2706e-02  8.2599e-03  5.8212e-03  0:02:51 1949
    52  3.3890e-02  1.3909e-02  7.4931e-02  8.5970e-01  3.3767e-02  8.2700e-03  5.7701e-03  0:08:46 1948
    53  3.5106e-02  1.3867e-02  7.4588e-02  8.6687e-01  3.4981e-02  8.2724e-03  5.7303e-03  0:07:01 1947
    54  3.6500e-02  1.3804e-02  7.4150e-02  8.8894e-01  3.6372e-02  8.2637e-03  5.6859e-03  0:05:36 1946
    55  3.8086e-02  1.3705e-02  7.3624e-02  9.0591e-01  3.7954e-02  8.2482e-03  5.6406e-03  0:04:29 1945

  iter  continuity  x-velocity  y-velocity  z-velocity      energy           k       omega     time/iter
    56  3.9773e-02  1.3604e-02  7.3012e-02  9.1804e-01  3.9636e-02  8.2475e-03  5.5753e-03  0:03:35 1944
    57  4.1506e-02  1.3539e-02  7.2337e-02  9.3942e-01  4.1362e-02  8.2554e-03  5.5034e-03  0:02:52 1943
    58  4.3217e-02  1.3445e-02  7.1599e-02  9.6788e-01  4.3066e-02  8.2620e-03  5.4501e-03  0:08:46 1942
    59  4.4923e-02  1.3410e-02  7.0831e-02  9.8741e-01  4.4765e-02  8.2709e-03  5.4098e-03  0:07:01 1941
    60  4.6581e-02  1.3410e-02  7.0034e-02  9.8910e-01  4.6416e-02  8.2939e-03  5.3685e-03  0:05:36 1940
    61  4.8174e-02  1.3419e-02  6.9242e-02  9.9753e-01  4.8001e-02  8.3118e-03  5.3420e-03  0:04:29 1939
    62  4.9683e-02  1.3447e-02  6.8465e-02  1.0066e+00  4.9502e-02  8.3363e-03  5.2952e-03  0:10:03 1938
    63  5.1081e-02  1.3514e-02  6.7735e-02  1.0303e+00  5.0894e-02  8.3730e-03  5.2625e-03  0:08:02 1937
    64  5.2349e-02  1.3625e-02  6.7067e-02  1.0881e+00  5.2154e-02  8.4156e-03  5.2366e-03  0:06:25 1936
    65  5.3474e-02  1.3750e-02  6.6485e-02  1.1747e+00  5.3274e-02  8.4648e-03  5.2132e-03  0:05:08 1935
    66  5.4481e-02  1.3913e-02  6.5983e-02  1.3139e+00  5.4275e-02  8.5424e-03  5.2081e-03  0:10:33 1934

  iter  continuity  x-velocity  y-velocity  z-velocity      energy           k       omega     time/iter
    67  5.5404e-02  1.4095e-02  6.5573e-02  1.4430e+00  5.5195e-02  8.6267e-03  5.2194e-03  0:08:26 1933
    68  5.6200e-02  1.4286e-02  6.5233e-02  1.6191e+00  5.5987e-02  8.7097e-03  5.2283e-03  0:06:45 1932
    69  5.6820e-02  1.4461e-02  6.4957e-02  1.8743e+00  5.6605e-02  8.8245e-03  5.2495e-03  0:11:50 1931
    70  5.7286e-02  1.4633e-02  6.4746e-02  2.2230e+00  5.7070e-02  8.9606e-03  5.2639e-03  0:09:28 1930
    71  5.7572e-02  1.4813e-02  6.4588e-02  2.5928e+00  5.7355e-02  9.1140e-03  5.2955e-03  0:07:34 1929
    72  5.7648e-02  1.4972e-02  6.4473e-02  2.9348e+00  5.7431e-02  9.2978e-03  5.3328e-03  0:06:03 1928
    73  5.7482e-02  1.5106e-02  6.4384e-02  3.2706e+00  5.7267e-02  9.4691e-03  5.3708e-03  0:11:16 1927
    74  5.7024e-02  1.5207e-02  6.4316e-02  3.5231e+00  5.6812e-02  9.7117e-03  5.4193e-03  0:09:00 1926
    75  5.6223e-02  1.5284e-02  6.4248e-02  3.7089e+00  5.6014e-02  9.9614e-03  5.4629e-03  0:07:12 1925
    76  5.5111e-02  1.5335e-02  6.4123e-02  3.8003e+00  5.4907e-02  1.0203e-02  5.5196e-03  0:12:10 1924
    77  5.3771e-02  1.5354e-02  6.3922e-02  3.8684e+00  5.3573e-02  1.0510e-02  5.5670e-03  0:09:44 1923

  iter  continuity  x-velocity  y-velocity  z-velocity      energy           k       omega     time/iter
    78  5.2297e-02  1.5356e-02  6.3602e-02  3.8252e+00  5.2106e-02  1.0798e-02  5.6315e-03  0:07:47 1922
    79  5.0798e-02  1.5334e-02  6.3142e-02  4.0936e+00  5.0614e-02  1.1090e-02  5.6996e-03  0:06:13 1921
    80  4.9541e-02  1.5298e-02  6.2513e-02  4.4200e+00  4.9363e-02  1.1433e-02  5.7527e-03  0:11:22 1920
    81  4.8938e-02  1.5252e-02  6.1721e-02  4.9450e+00  4.8765e-02  1.1812e-02  5.8168e-03  0:09:06 1919
    82  4.9219e-02  1.5174e-02  6.0884e-02  5.6255e+00  4.9050e-02  1.2105e-02  5.9009e-03  0:07:16 1918
    83  5.0031e-02  1.5088e-02  5.9974e-02  6.0778e+00  4.9863e-02  1.2562e-02  5.9750e-03  0:12:12 1917
    84  5.0186e-02  1.4997e-02  5.9203e-02  6.8081e+00  5.0023e-02  1.2971e-02  6.0161e-03  0:09:46 1916
    85  4.9918e-02  1.4875e-02  5.8640e-02  7.6524e+00  4.9761e-02  1.3258e-02  6.0897e-03  0:07:48 1915
    86  4.9179e-02  1.4682e-02  5.8300e-02  8.4398e+00  4.9029e-02  1.3606e-02  6.1847e-03  0:12:37 1914
    87  4.8172e-02  1.4468e-02  5.8187e-02  8.5924e+00  4.8028e-02  1.3968e-02  6.2542e-03  0:10:05 1913
    88  4.7119e-02  1.4263e-02  5.8277e-02  8.9181e+00  4.6981e-02  1.4313e-02  6.3012e-03  0:08:04 1912

  iter  continuity  x-velocity  y-velocity  z-velocity      energy           k       omega     time/iter
    89  4.6301e-02  1.4055e-02  5.8492e-02  9.1591e+00  4.6169e-02  1.4607e-02  6.3345e-03  0:06:27 1911
    90  4.5796e-02  1.3866e-02  5.8702e-02  9.9221e+00  4.5669e-02  1.5008e-02  6.3570e-03  0:11:31 1910
    91  4.5519e-02  1.3698e-02  5.8930e-02  1.1669e+01  4.5396e-02  1.5426e-02  6.3813e-03  0:09:13 1909
    92  4.5413e-02  1.3557e-02  5.9294e-02  1.3551e+01  4.5295e-02  1.5631e-02  6.3956e-03  0:07:22 1908
    93  4.5243e-02  1.3444e-02  6.0151e-02  1.7419e+01  4.5130e-02  1.5968e-02  6.4330e-03  0:12:15 1907
    94  4.4396e-02  1.3345e-02  6.1251e-02  2.2790e+01  4.4291e-02  1.6390e-02  6.4614e-03  0:09:48 1906
    95  4.2425e-02  1.3283e-02  6.2085e-02  3.1986e+01  4.2330e-02  1.6844e-02  6.4519e-03  0:07:50 1905
    96  3.9518e-02  1.3280e-02  6.2423e-02  4.5880e+01  3.9435e-02  1.7111e-02  6.4784e-03  0:06:16 1904
    97  3.6432e-02  1.3301e-02  6.2410e-02  6.7669e+01  3.6361e-02  1.7455e-02  6.5203e-03  0:11:21 1903
    98  3.4439e-02  1.3344e-02  6.2051e-02  9.5922e+01  3.4374e-02  1.7856e-02  6.5449e-03  0:09:04 1902
    99  3.5165e-02  1.3383e-02  6.1625e-02  1.4319e+02  3.5098e-02  1.8233e-02  6.5821e-03  0:07:15 1901

  iter  continuity  x-velocity  y-velocity  z-velocity      energy           k       omega     time/iter
   100  3.6939e-02  1.3430e-02  6.1229e-02  1.9184e+02  3.6868e-02  1.8478e-02  6.5923e-03  0:12:08 1900
   101  3.7723e-02  1.3548e-02  6.0706e-02  2.5296e+02  3.7649e-02  1.8710e-02  6.6026e-03  0:09:42 1899
   102  3.7989e-02  1.3737e-02  6.0372e-02  2.7660e+02  3.7914e-02  1.8827e-02  6.6255e-03  0:07:45 1898
   103  3.7563e-02  1.3860e-02  6.0154e-02  2.7611e+02  3.7487e-02  1.9003e-02  6.6324e-03  0:06:12 1897
   104  3.6840e-02  1.3984e-02  5.9929e-02  2.5842e+02  3.6764e-02  1.9252e-02  6.6193e-03  0:11:17 1896
   105  3.6203e-02  1.4209e-02  5.9814e-02  2.3686e+02  3.6126e-02  1.9443e-02  6.6240e-03  0:09:01 1895
   106  3.5886e-02  1.4446e-02  5.9667e-02  2.2084e+02  3.5809e-02  1.9528e-02  6.6055e-03  0:07:13 1894
   107  3.5786e-02  1.4645e-02  5.9406e-02  2.1422e+02  3.5708e-02  1.9637e-02  6.5673e-03  0:12:05 1893
   108  3.5837e-02  1.4859e-02  5.9154e-02  2.0907e+02  3.5759e-02  1.9607e-02  6.5152e-03  0:09:39 1892
   109  3.5810e-02  1.4993e-02  5.8773e-02  2.0089e+02  3.5732e-02  1.9458e-02  6.4860e-03  0:07:43 1891
   110  3.5721e-02  1.5050e-02  5.8276e-02  1.9124e+02  3.5642e-02  1.9377e-02  6.4340e-03  0:06:10 1890

  iter  continuity  x-velocity  y-velocity  z-velocity      energy           k       omega     time/iter
   111  3.5599e-02  1.5129e-02  5.7708e-02  1.8823e+02  3.5521e-02  1.9425e-02  6.3708e-03  0:11:14 1889
   112  3.5661e-02  1.5211e-02  5.6978e-02  1.7868e+02  3.5582e-02  1.9438e-02  6.3050e-03  0:08:59 1888
   113  3.5734e-02  1.5188e-02  5.6119e-02  1.7415e+02  3.5656e-02  1.9408e-02  6.2147e-03  0:07:11 1887
   114  3.5734e-02  1.5189e-02  5.5175e-02  1.7010e+02  3.5656e-02  1.9302e-02  6.1381e-03  0:12:02 1886
   115  3.5405e-02  1.5204e-02  5.4202e-02  1.6370e+02  3.5327e-02  1.9226e-02  6.0703e-03  0:09:37 1885
   116  3.4962e-02  1.5251e-02  5.3247e-02  1.5647e+02  3.4885e-02  1.9088e-02  6.0193e-03  0:07:41 1884
   117  3.4482e-02  1.5284e-02  5.2281e-02  1.5516e+02  3.4406e-02  1.8846e-02  5.9640e-03  0:06:09 1883
   118  3.3928e-02  1.5348e-02  5.1347e-02  1.5826e+02  3.3853e-02  1.8560e-02  5.9280e-03  0:11:11 1882
   119  3.2955e-02  1.5519e-02  5.0462e-02  1.5893e+02  3.2881e-02  1.8342e-02  5.8889e-03  0:08:57 1881
   120  3.1567e-02  1.5699e-02  4.9646e-02  1.6122e+02  3.1494e-02  1.8245e-02  5.8449e-03  0:07:09 1880
   121  2.9962e-02  1.5790e-02  4.8906e-02  1.5590e+02  2.9891e-02  1.8142e-02  5.8086e-03  0:11:59 1879

  iter  continuity  x-velocity  y-velocity  z-velocity      energy           k       omega     time/iter
   122  2.8195e-02  1.5890e-02  4.8226e-02  1.4448e+02  2.8126e-02  1.8032e-02  5.7891e-03  0:09:35 1878
   123  2.6484e-02  1.6137e-02  4.7600e-02  1.2960e+02  2.6417e-02  1.7991e-02  5.7595e-03  0:07:40 1877
   124  2.5116e-02  1.6140e-02  4.6993e-02  1.2070e+02  2.5053e-02  1.8012e-02  5.7256e-03  0:06:08 1876
   125  2.3694e-02  1.6289e-02  4.6361e-02  1.2060e+02  2.3635e-02  1.8055e-02  5.6980e-03  0:11:09 1875
   126  2.2891e-02  1.6346e-02  4.5667e-02  1.2364e+02  2.2836e-02  1.8081e-02  5.6816e-03  0:08:55 1874
   127  2.2419e-02  1.6416e-02  4.4860e-02  1.2442e+02  2.2366e-02  1.8141e-02  5.6609e-03  0:07:08 1873
   128  2.2325e-02  1.6443e-02  4.3934e-02  1.2294e+02  2.2272e-02  1.8266e-02  5.6665e-03  0:11:56 1872
   129  2.2299e-02  1.6453e-02  4.2958e-02  1.1978e+02  2.2246e-02  1.8446e-02  5.6732e-03  0:09:33 1871
   130  2.2264e-02  1.6480e-02  4.1953e-02  1.1696e+02  2.2210e-02  1.8638e-02  5.6766e-03  0:07:38 1870
   131  2.2269e-02  1.6510e-02  4.0968e-02  1.1399e+02  2.2214e-02  1.8800e-02  5.7129e-03  0:06:06 1869
   132  2.2317e-02  1.6557e-02  4.0046e-02  1.1098e+02  2.2263e-02  1.8910e-02  5.7381e-03  0:11:06 1868

  iter  continuity  x-velocity  y-velocity  z-velocity      energy           k       omega     time/iter
   133  2.2466e-02  1.6598e-02  3.9205e-02  1.0842e+02  2.2411e-02  1.8978e-02  5.7522e-03  0:08:53 1867
   134  2.2646e-02  1.6618e-02  3.8419e-02  1.0679e+02  2.2591e-02  1.8987e-02  5.7685e-03  0:07:06 1866
   135  2.2833e-02  1.6631e-02  3.7693e-02  1.0738e+02  2.2776e-02  1.8891e-02  5.7653e-03  0:11:54 1865
   136  2.3049e-02  1.6656e-02  3.7021e-02  1.0981e+02  2.2992e-02  1.8735e-02  5.7529e-03  0:09:31 1864
   137  2.3244e-02  1.6696e-02  3.6401e-02  1.1330e+02  2.3186e-02  1.8496e-02  5.7601e-03  0:07:36 1863
   138  2.3419e-02  1.6735e-02  3.5809e-02  1.1713e+02  2.3360e-02  1.8221e-02  5.7692e-03  0:06:05 1862
   139  2.3631e-02  1.6775e-02  3.5258e-02  1.2136e+02  2.3571e-02  1.8066e-02  5.7600e-03  0:11:04 1861
   140  2.3829e-02  1.6826e-02  3.4743e-02  1.2530e+02  2.3768e-02  1.7947e-02  5.7287e-03  0:08:51 1860
   141  2.3981e-02  1.6884e-02  3.4278e-02  1.2925e+02  2.3919e-02  1.7836e-02  5.6939e-03  0:07:04 1859
   142  2.4203e-02  1.6927e-02  3.3844e-02  1.3329e+02  2.4139e-02  1.7705e-02  5.6553e-03  0:11:51 1858
   143  2.4380e-02  1.6962e-02  3.3447e-02  1.3733e+02  2.4315e-02  1.7607e-02  5.6143e-03  0:09:28 1857

  iter  continuity  x-velocity  y-velocity  z-velocity      energy           k       omega     time/iter
   144  2.4604e-02  1.6982e-02  3.3121e-02  1.4157e+02  2.4537e-02  1.7514e-02  5.5905e-03  0:07:35 1856
   145  2.4820e-02  1.6980e-02  3.2867e-02  1.4628e+02  2.4752e-02  1.7411e-02  5.5407e-03  0:06:03 1855
   146  2.5099e-02  1.6949e-02  3.2688e-02  1.5050e+02  2.5029e-02  1.7270e-02  5.4865e-03  0:11:01 1854
   147  2.5377e-02  1.6889e-02  3.2612e-02  1.5454e+02  2.5306e-02  1.7123e-02  5.4291e-03  0:08:49 1853
   148  2.5594e-02  1.6810e-02  3.2644e-02  1.5714e+02  2.5522e-02  1.6974e-02  5.3485e-03  0:07:03 1852
   149  2.5808e-02  1.6710e-02  3.2790e-02  1.5879e+02  2.5735e-02  1.6830e-02  5.2905e-03  0:11:48 1851
   150  2.6016e-02  1.6592e-02  3.3057e-02  1.5949e+02  2.5941e-02  1.6700e-02  5.2658e-03  0:09:26 1850
   151  2.6175e-02  1.6469e-02  3.3458e-02  1.5916e+02  2.6100e-02  1.6597e-02  5.2254e-03  0:07:33 1849
   152  2.6308e-02  1.6340e-02  3.3968e-02  1.5802e+02  2.6232e-02  1.6430e-02  5.1527e-03  0:12:12 1848
   153  2.6404e-02  1.6208e-02  3.4590e-02  1.5644e+02  2.6327e-02  1.6180e-02  5.1008e-03  0:09:45 1847
   154  2.6426e-02  1.6078e-02  3.5317e-02  1.5457e+02  2.6349e-02  1.5882e-02  5.0493e-03  0:07:48 1846

  iter  continuity  x-velocity  y-velocity  z-velocity      energy           k       omega     time/iter
   155  2.6384e-02  1.5940e-02  3.6151e-02  1.5258e+02  2.6307e-02  1.5594e-02  4.9905e-03  0:06:14 1845
   156  2.6271e-02  1.5800e-02  3.7070e-02  1.5080e+02  2.6193e-02  1.5387e-02  4.9388e-03  0:11:08 1844
   157  2.6060e-02  1.5660e-02  3.8044e-02  1.4930e+02  2.5982e-02  1.5145e-02  4.8808e-03  0:08:54 1843
   158  2.5760e-02  1.5529e-02  3.9063e-02  1.4820e+02  2.5683e-02  1.4866e-02  4.8224e-03  0:07:07 1842
   159  2.5392e-02  1.5401e-02  4.0101e-02  1.4770e+02  2.5316e-02  1.4668e-02  4.7635e-03  0:11:50 1841
   160  2.4961e-02  1.5276e-02  4.1157e-02  1.4796e+02  2.4886e-02  1.4525e-02  4.7158e-03  0:09:27 1840
   161  2.4475e-02  1.5148e-02  4.2228e-02  1.4909e+02  2.4401e-02  1.4378e-02  4.6437e-03  0:07:34 1839
   162  2.3890e-02  1.5019e-02  4.3262e-02  1.5127e+02  2.3817e-02  1.4247e-02  4.5884e-03  0:06:03 1838
   163  2.3179e-02  1.4892e-02  4.4239e-02  1.5452e+02  2.3108e-02  1.4065e-02  4.5336e-03  0:10:57 1837
   164  2.2382e-02  1.4768e-02  4.5148e-02  1.5850e+02  2.2312e-02  1.3880e-02  4.4906e-03  0:08:46 1836
   165  2.1509e-02  1.4647e-02  4.5963e-02  1.6300e+02  2.1441e-02  1.3787e-02  4.4612e-03  0:07:00 1835

  iter  continuity  x-velocity  y-velocity  z-velocity      energy           k       omega     time/iter
   166  2.0557e-02  1.4528e-02  4.6696e-02  1.6771e+02  2.0491e-02  1.3735e-02  4.4148e-03  0:11:43 1834
   167  1.9618e-02  1.4414e-02  4.7347e-02  1.7230e+02  1.9553e-02  1.3626e-02  4.3753e-03  0:09:22 1833
   168  1.8677e-02  1.4302e-02  4.7895e-02  1.7651e+02  1.8613e-02  1.3557e-02  4.3371e-03  0:07:29 1832
   169  1.7734e-02  1.4194e-02  4.8329e-02  1.8015e+02  1.7672e-02  1.3412e-02  4.2926e-03  0:05:59 1831
   170  1.6790e-02  1.4087e-02  4.8664e-02  1.8328e+02  1.6729e-02  1.3247e-02  4.2538e-03  0:10:53 1830
   171  1.5902e-02  1.3974e-02  4.8921e-02  1.8588e+02  1.5843e-02  1.3092e-02  4.2221e-03  0:08:42 1829
   172  1.5131e-02  1.3854e-02  4.9096e-02  1.8772e+02  1.5073e-02  1.2932e-02  4.1848e-03  0:06:58 1828
   173  1.4534e-02  1.3732e-02  4.9194e-02  1.8872e+02  1.4477e-02  1.2758e-02  4.1532e-03  0:11:39 1827
   174  1.4079e-02  1.3601e-02  4.9230e-02  1.8882e+02  1.4024e-02  1.2542e-02  4.1213e-03  0:09:19 1826
   175  1.3754e-02  1.3460e-02  4.9222e-02  1.8808e+02  1.3700e-02  1.2374e-02  4.0862e-03  0:07:27 1825
   176  1.3570e-02  1.3308e-02  4.9170e-02  1.8641e+02  1.3518e-02  1.2164e-02  4.0638e-03  0:05:57 1824

  iter  continuity  x-velocity  y-velocity  z-velocity      energy           k       omega     time/iter
   177  1.3512e-02  1.3149e-02  4.9066e-02  1.8390e+02  1.3462e-02  1.1907e-02  4.0397e-03  0:10:50 1823
   178  1.3549e-02  1.2980e-02  4.8915e-02  1.8063e+02  1.3500e-02  1.1696e-02  4.0225e-03  0:08:40 1822
   179  1.3658e-02  1.2807e-02  4.8722e-02  1.7664e+02  1.3610e-02  1.1471e-02  3.9860e-03  0:06:56 1821
   180  1.3814e-02  1.2631e-02  4.8493e-02  1.7226e+02  1.3765e-02  1.1208e-02  3.9628e-03  0:05:32 1820
   181  1.4001e-02  1.2450e-02  4.8234e-02  1.6778e+02  1.3952e-02  1.0929e-02  3.9357e-03  0:10:30 1819
   182  1.4214e-02  1.2272e-02  4.7947e-02  1.6341e+02  1.4163e-02  1.0666e-02  3.8970e-03  0:08:23 1818
   183  1.4450e-02  1.2101e-02  4.7626e-02  1.5954e+02  1.4398e-02  1.0427e-02  3.8537e-03  0:06:43 1817
   184  1.4703e-02  1.1939e-02  4.7272e-02  1.5646e+02  1.4650e-02  1.0176e-02  3.8288e-03  0:11:25 1816
   185  1.4972e-02  1.1791e-02  4.6896e-02  1.5440e+02  1.4916e-02  9.9297e-03  3.7929e-03  0:09:08 1815
   186  1.5255e-02  1.1666e-02  4.6503e-02  1.5347e+02  1.5197e-02  9.7114e-03  3.7609e-03  0:07:18 1814
   187  1.5553e-02  1.1566e-02  4.6105e-02  1.5381e+02  1.5493e-02  9.5162e-03  3.7291e-03  0:11:53 1813

  iter  continuity  x-velocity  y-velocity  z-velocity      energy           k       omega     time/iter
   188  1.5865e-02  1.1492e-02  4.5739e-02  1.5507e+02  1.5802e-02  9.3296e-03  3.6976e-03  0:09:30 1812
   189  1.6179e-02  1.1440e-02  4.5408e-02  1.5687e+02  1.6114e-02  9.1451e-03  3.6581e-03  0:07:36 1811
   190  1.6480e-02  1.1406e-02  4.5109e-02  1.5856e+02  1.6413e-02  8.9821e-03  3.6348e-03  0:06:04 1810
   191  1.6755e-02  1.1386e-02  4.4846e-02  1.5959e+02  1.6686e-02  8.8257e-03  3.6176e-03  0:10:53 1809
   192  1.6996e-02  1.1382e-02  4.4616e-02  1.6005e+02  1.6926e-02  8.6784e-03  3.5895e-03  0:08:42 1808
   193  1.7196e-02  1.1391e-02  4.4415e-02  1.5988e+02  1.7124e-02  8.5427e-03  3.5665e-03  0:06:58 1807
   194  1.7349e-02  1.1410e-02  4.4251e-02  1.5872e+02  1.7275e-02  8.4175e-03  3.5451e-03  0:11:35 1806
   195  1.7446e-02  1.1440e-02  4.4127e-02  1.5628e+02  1.7370e-02  8.2960e-03  3.5294e-03  0:09:16 1805
   196  1.7484e-02  1.1475e-02  4.4043e-02  1.5234e+02  1.7406e-02  8.1646e-03  3.5129e-03  0:07:24 1804
   197  1.7461e-02  1.1514e-02  4.3997e-02  1.4737e+02  1.7381e-02  8.0268e-03  3.5054e-03  0:05:55 1803
   198  1.7368e-02  1.1558e-02  4.4000e-02  1.4137e+02  1.7286e-02  7.8965e-03  3.4923e-03  0:10:44 1802

  iter  continuity  x-velocity  y-velocity  z-velocity      energy           k       omega     time/iter
   199  1.7211e-02  1.1608e-02  4.4070e-02  1.3442e+02  1.7126e-02  7.7914e-03  3.4928e-03  0:08:35 1801
   200  1.6999e-02  1.1661e-02  4.4223e-02  1.2760e+02  1.6912e-02  7.7116e-03  3.4968e-03  0:06:52 1800
   201  1.6733e-02  1.1718e-02  4.4445e-02  1.2005e+02  1.6646e-02  7.6508e-03  3.5036e-03  0:11:29 1799
   202  1.6420e-02  1.1770e-02  4.4738e-02  1.1330e+02  1.6331e-02  7.6101e-03  3.5109e-03  0:09:11 1798
   203  1.6071e-02  1.1815e-02  4.5182e-02  1.0756e+02  1.5981e-02  7.5835e-03  3.5369e-03  0:07:21 1797
   204  1.5691e-02  1.1853e-02  4.5758e-02  1.0340e+02  1.5600e-02  7.5701e-03  3.5624e-03  0:05:52 1796
   205  1.5273e-02  1.1882e-02  4.6446e-02  1.0168e+02  1.5182e-02  7.5778e-03  3.5835e-03  0:10:41 1795
   206  1.4820e-02  1.1899e-02  4.7215e-02  1.0362e+02  1.4730e-02  7.5986e-03  3.6058e-03  0:08:32 1794
   207  1.4306e-02  1.1915e-02  4.8034e-02  1.0841e+02  1.4217e-02  7.6111e-03  3.6315e-03  0:06:50 1793
   208  1.3752e-02  1.1934e-02  4.8883e-02  1.1305e+02  1.3665e-02  7.6079e-03  3.6500e-03  0:05:27 1792
   209  1.3186e-02  1.1950e-02  4.9832e-02  1.1636e+02  1.3101e-02  7.6038e-03  3.6720e-03  0:10:20 1791

  iter  continuity  x-velocity  y-velocity  z-velocity      energy           k       omega     time/iter
   210  1.2622e-02  1.1961e-02  5.0803e-02  1.1738e+02  1.2540e-02  7.6330e-03  3.6821e-03  0:08:16 1790
   211  1.2052e-02  1.1978e-02  5.1778e-02  1.1860e+02  1.1974e-02  7.6700e-03  3.6845e-03  0:06:36 1789
   212  1.1476e-02  1.2004e-02  5.2714e-02  1.1939e+02  1.1404e-02  7.7072e-03  3.6844e-03  0:11:15 1788
   213  1.0900e-02  1.2042e-02  5.3556e-02  1.2109e+02  1.0833e-02  7.7360e-03  3.6828e-03  0:08:59 1787
   214  1.0334e-02  1.2091e-02  5.4239e-02  1.2324e+02  1.0273e-02  7.7992e-03  3.6807e-03  0:07:11 1786
   215  9.7871e-03  1.2155e-02  5.4836e-02  1.2664e+02  9.7340e-03  7.8602e-03  3.6824e-03  0:05:45 1785
   216  9.2900e-03  1.2233e-02  5.5329e-02  1.3042e+02  9.2455e-03  7.8991e-03  3.6861e-03  0:10:32 1784
   217  8.8593e-03  1.2324e-02  5.5716e-02  1.3516e+02  8.8241e-03  7.9004e-03  3.6845e-03  0:08:26 1783
   218  8.5072e-03  1.2426e-02  5.5971e-02  1.3823e+02  8.4819e-03  7.8864e-03  3.6732e-03  0:06:44 1782
   219  8.2481e-03  1.2540e-02  5.6096e-02  1.4160e+02  8.2330e-03  7.8605e-03  3.6632e-03  0:11:19 1781
   220  8.0952e-03  1.2666e-02  5.6089e-02  1.4523e+02  8.0901e-03  7.8412e-03  3.6500e-03  0:09:03 1780

  iter  continuity  x-velocity  y-velocity  z-velocity      energy           k       omega     time/iter
   221  8.0544e-03  1.2803e-02  5.5941e-02  1.4853e+02  8.0585e-03  7.8367e-03  3.6438e-03  0:07:14 1779
   222  8.1185e-03  1.2940e-02  5.5669e-02  1.5125e+02  8.1306e-03  7.8373e-03  3.6371e-03  0:05:47 1778
   223  8.2752e-03  1.3076e-02  5.5269e-02  1.5244e+02  8.2935e-03  7.8464e-03  3.6303e-03  0:10:33 1777
   224  8.5045e-03  1.3211e-02  5.4745e-02  1.5321e+02  8.5275e-03  7.8555e-03  3.6298e-03  0:08:26 1776
   225  8.7859e-03  1.3340e-02  5.4119e-02  1.5342e+02  8.8120e-03  7.8611e-03  3.6277e-03  0:06:45 1775
   226  9.0964e-03  1.3464e-02  5.3406e-02  1.5205e+02  9.1243e-03  7.8857e-03  3.6258e-03  0:11:18 1774
   227  9.4153e-03  1.3581e-02  5.2625e-02  1.5066e+02  9.4437e-03  7.9322e-03  3.6298e-03  0:09:02 1773
   228  9.7258e-03  1.3694e-02  5.1791e-02  1.4900e+02  9.7539e-03  7.9570e-03  3.6214e-03  0:07:14 1772
   229  1.0011e-02  1.3799e-02  5.0908e-02  1.4721e+02  1.0038e-02  7.9742e-03  3.6175e-03  0:05:47 1771
   230  1.0257e-02  1.3892e-02  4.9984e-02  1.4529e+02  1.0282e-02  7.9777e-03  3.6088e-03  0:10:31 1770
   231  1.0457e-02  1.3975e-02  4.9034e-02  1.4364e+02  1.0481e-02  7.9778e-03  3.5976e-03  0:08:25 1769

  iter  continuity  x-velocity  y-velocity  z-velocity      energy           k       omega     time/iter
   232  1.0603e-02  1.4048e-02  4.8066e-02  1.4042e+02  1.0625e-02  7.9864e-03  3.5936e-03  0:06:44 1768
   233  1.0689e-02  1.4112e-02  4.7082e-02  1.3662e+02  1.0708e-02  7.9745e-03  3.5842e-03  0:11:16 1767
   234  1.0713e-02  1.4162e-02  4.6093e-02  1.3188e+02  1.0731e-02  7.9546e-03  3.5832e-03  0:09:01 1766
   235  1.0677e-02  1.4193e-02  4.5103e-02  1.2669e+02  1.0692e-02  7.9336e-03  3.5777e-03  0:07:12 1765
   236  1.0582e-02  1.4210e-02  4.4115e-02  1.2091e+02  1.0595e-02  7.9233e-03  3.5667e-03  0:11:38 1764
   237  1.0430e-02  1.4209e-02  4.3137e-02  1.1524e+02  1.0441e-02  7.9091e-03  3.5550e-03  0:09:18 1763
   238  1.0228e-02  1.4190e-02  4.2173e-02  1.0950e+02  1.0237e-02  7.8788e-03  3.5378e-03  0:07:26 1762
   239  9.9801e-03  1.4153e-02  4.1224e-02  1.0443e+02  9.9873e-03  7.8683e-03  3.5125e-03  0:11:49 1761
   240  9.6912e-03  1.4101e-02  4.0292e-02  9.8405e+01  9.6967e-03  7.8850e-03  3.4889e-03  0:09:27 1760
   241  9.3669e-03  1.4037e-02  3.9379e-02  9.2586e+01  9.3709e-03  7.9234e-03  3.4612e-03  0:07:33 1759
   242  9.0170e-03  1.3956e-02  3.8483e-02  8.7078e+01  9.0195e-03  7.9175e-03  3.4489e-03  0:06:02 1758

  iter  continuity  x-velocity  y-velocity  z-velocity      energy           k       omega     time/iter
   243  8.6492e-03  1.3855e-02  3.7603e-02  8.1847e+01  8.6503e-03  7.9324e-03  3.4267e-03  0:10:41 1757
   244  8.2679e-03  1.3737e-02  3.6739e-02  7.8027e+01  8.2676e-03  7.9606e-03  3.4055e-03  0:08:33 1756
   245  7.8828e-03  1.3603e-02  3.5890e-02  7.4893e+01  7.8813e-03  8.0007e-03  3.3885e-03  0:06:50 1755
   246  7.5016e-03  1.3454e-02  3.5054e-02  7.0231e+01  7.4988e-03  8.0589e-03  3.3667e-03  0:11:19 1754
   247  7.1333e-03  1.3292e-02  3.4229e-02  6.5950e+01  7.1292e-03  8.1354e-03  3.3400e-03  0:09:03 1753
   248  6.7869e-03  1.3120e-02  3.3415e-02  6.1296e+01  6.7815e-03  8.2191e-03  3.3088e-03  0:07:14 1752
   249  6.4729e-03  1.2937e-02  3.2610e-02  5.6229e+01  6.4661e-03  8.2974e-03  3.2746e-03  0:05:47 1751
   250  6.2032e-03  1.2748e-02  3.1812e-02  5.2819e+01  6.1947e-03  8.3758e-03  3.2482e-03  0:10:27 1750
   251  5.9850e-03  1.2553e-02  3.1020e-02  4.9733e+01  5.9748e-03  8.4659e-03  3.2172e-03  0:08:22 1749
   252  5.8247e-03  1.2351e-02  3.0232e-02  4.5731e+01  5.8127e-03  8.5483e-03  3.1975e-03  0:06:41 1748
   253  5.7279e-03  1.2158e-02  2.9450e-02  4.2067e+01  5.7141e-03  8.6549e-03  3.1737e-03  0:05:21 1747

  iter  continuity  x-velocity  y-velocity  z-velocity      energy           k       omega     time/iter
   254  5.6961e-03  1.1969e-02  2.8670e-02  3.8972e+01  5.6803e-03  8.7384e-03  3.1539e-03  0:10:06 1746
   255  5.7257e-03  1.1777e-02  2.7896e-02  3.6404e+01  5.7081e-03  8.8286e-03  3.1397e-03  0:08:04 1745
   256  5.8104e-03  1.1584e-02  2.7124e-02  3.3359e+01  5.7911e-03  8.9157e-03  3.1205e-03  0:06:27 1744
   257  5.9423e-03  1.1393e-02  2.6365e-02  3.0365e+01  5.9214e-03  9.0033e-03  3.0979e-03  0:10:58 1743
   258  6.1068e-03  1.1207e-02  2.5618e-02  2.7947e+01  6.0845e-03  9.0779e-03  3.0843e-03  0:08:46 1742
   259  6.2930e-03  1.1028e-02  2.4889e-02  2.6146e+01  6.2693e-03  9.1494e-03  3.0669e-03  0:07:01 1741
   260  6.4913e-03  1.0858e-02  2.4179e-02  2.5529e+01  6.4664e-03  9.2038e-03  3.0577e-03  0:05:36 1740
   261  6.6919e-03  1.0696e-02  2.3489e-02  2.5846e+01  6.6659e-03  9.2605e-03  3.0474e-03  0:10:17 1739
   262  6.8861e-03  1.0543e-02  2.2818e-02  2.5724e+01  6.8591e-03  9.3144e-03  3.0362e-03  0:08:13 1738
   263  7.0680e-03  1.0400e-02  2.2170e-02  2.4919e+01  7.0402e-03  9.3845e-03  3.0269e-03  0:06:34 1737
   264  7.2337e-03  1.0268e-02  2.1551e-02  2.4738e+01  7.2050e-03  9.4598e-03  3.0106e-03  0:11:02 1736

  iter  continuity  x-velocity  y-velocity  z-velocity      energy           k       omega     time/iter
   265  7.3804e-03  1.0149e-02  2.0968e-02  2.5184e+01  7.3509e-03  9.5184e-03  2.9984e-03  0:08:50 1735
   266  7.5062e-03  1.0041e-02  2.0422e-02  2.6142e+01  7.4760e-03  9.5860e-03  2.9918e-03  0:07:03 1734
   267  7.6081e-03  9.9457e-03  1.9914e-02  2.7449e+01  7.5773e-03  9.6567e-03  2.9821e-03  0:05:39 1733
   268  7.6877e-03  9.8618e-03  1.9450e-02  2.8911e+01  7.6563e-03  9.7024e-03  2.9788e-03  0:10:17 1732
   269  7.7472e-03  9.7894e-03  1.9032e-02  3.0223e+01  7.7152e-03  9.7327e-03  2.9581e-03  0:08:13 1731
   270  7.7895e-03  9.7267e-03  1.8659e-02  3.0937e+01  7.7570e-03  9.7619e-03  2.9556e-03  0:06:34 1730
   271  7.8164e-03  9.6696e-03  1.8334e-02  3.1387e+01  7.7833e-03  9.8001e-03  2.9397e-03  0:11:01 1729
   272  7.8330e-03  9.6164e-03  1.8057e-02  3.1896e+01  7.7994e-03  9.8284e-03  2.9235e-03  0:08:49 1728
   273  7.8444e-03  9.5680e-03  1.7832e-02  3.2483e+01  7.8103e-03  9.8819e-03  2.9093e-03  0:07:03 1727
   274  7.8571e-03  9.5249e-03  1.7654e-02  3.3082e+01  7.8223e-03  9.9339e-03  2.8929e-03  0:11:23 1726
   275  7.8755e-03  9.4841e-03  1.7525e-02  3.3637e+01  7.8401e-03  9.9798e-03  2.8736e-03  0:09:06 1725

  iter  continuity  x-velocity  y-velocity  z-velocity      energy           k       omega     time/iter
   276  7.9051e-03  9.4458e-03  1.7445e-02  3.3832e+01  7.8691e-03  1.0002e-02  2.8430e-03  0:07:17 1724
   277  7.9512e-03  9.4093e-03  1.7413e-02  3.3892e+01  7.9145e-03  9.9494e-03  2.8187e-03  0:05:49 1723
   278  8.0186e-03  9.3752e-03  1.7427e-02  3.3773e+01  7.9812e-03  9.8530e-03  2.7990e-03  0:10:24 1722
   279  8.1087e-03  9.3427e-03  1.7482e-02  3.3580e+01  8.0705e-03  9.7671e-03  2.7861e-03  0:08:19 1721
   280  8.2228e-03  9.3118e-03  1.7579e-02  3.3312e+01  8.1839e-03  9.6998e-03  2.7770e-03  0:06:39 1720
   281  8.3640e-03  9.2820e-03  1.7713e-02  3.3021e+01  8.3242e-03  9.6496e-03  2.7638e-03  0:11:03 1719
   282  8.5314e-03  9.2512e-03  1.7884e-02  3.2629e+01  8.4907e-03  9.5351e-03  2.7502e-03  0:08:50 1718
   283  8.7216e-03  9.2218e-03  1.8083e-02  3.2204e+01  8.6800e-03  9.3985e-03  2.7369e-03  0:07:04 1717
   284  8.9325e-03  9.1942e-03  1.8310e-02  3.1788e+01  8.8899e-03  9.2458e-03  2.7231e-03  0:05:39 1716
   285  9.1608e-03  9.1685e-03  1.8559e-02  3.1363e+01  9.1172e-03  9.0967e-03  2.7060e-03  0:10:14 1715
   286  9.4024e-03  9.1471e-03  1.8822e-02  3.0977e+01  9.3578e-03  8.9285e-03  2.6876e-03  0:08:11 1714

  iter  continuity  x-velocity  y-velocity  z-velocity      energy           k       omega     time/iter
   287  9.6541e-03  9.1323e-03  1.9094e-02  3.0641e+01  9.6083e-03  8.7569e-03  2.6779e-03  0:06:32 1713
   288  9.9121e-03  9.1234e-03  1.9376e-02  3.0377e+01  9.8652e-03  8.5714e-03  2.6612e-03  0:10:56 1712
   289  1.0172e-02  9.1187e-03  1.9663e-02  3.0126e+01  1.0124e-02  8.3968e-03  2.6516e-03  0:08:45 1711
   290  1.0431e-02  9.1192e-03  1.9949e-02  2.9932e+01  1.0381e-02  8.2483e-03  2.6417e-03  0:06:59 1710
   291  1.0686e-02  9.1275e-03  2.0228e-02  2.9878e+01  1.0636e-02  8.1130e-03  2.6379e-03  0:05:35 1709
   292  1.0937e-02  9.1459e-03  2.0497e-02  2.9986e+01  1.0886e-02  7.9841e-03  2.6356e-03  0:10:10 1708
   293  1.1180e-02  9.1739e-03  2.0758e-02  3.0243e+01  1.1127e-02  7.8483e-03  2.6329e-03  0:08:07 1707
   294  1.1414e-02  9.2078e-03  2.1006e-02  3.0662e+01  1.1360e-02  7.7251e-03  2.6348e-03  0:06:30 1706
   295  1.1635e-02  9.2457e-03  2.1246e-02  3.1262e+01  1.1579e-02  7.6183e-03  2.6268e-03  0:10:53 1705
   296  1.1844e-02  9.2859e-03  2.1471e-02  3.2062e+01  1.1787e-02  7.5004e-03  2.6264e-03  0:08:42 1704
   297  1.2037e-02  9.3295e-03  2.1683e-02  3.3045e+01  1.1979e-02  7.3719e-03  2.6265e-03  0:06:57 1703

  iter  continuity  x-velocity  y-velocity  z-velocity      energy           k       omega     time/iter
   298  1.2218e-02  9.3766e-03  2.1882e-02  3.4220e+01  1.2159e-02  7.2646e-03  2.6301e-03  0:05:34 1702
   299  1.2386e-02  9.4272e-03  2.2067e-02  3.5531e+01  1.2326e-02  7.1811e-03  2.6309e-03  0:10:07 1701
   300  1.2541e-02  9.4799e-03  2.2243e-02  3.6810e+01  1.2480e-02  7.1137e-03  2.6267e-03  0:08:05 1700
   301  1.2688e-02  9.5338e-03  2.2410e-02  3.7965e+01  1.2626e-02  7.0607e-03  2.6270e-03  0:06:28 1699
   302  1.2828e-02  9.5887e-03  2.2569e-02  3.9157e+01  1.2765e-02  6.9954e-03  2.6264e-03  0:10:50 1698
   303  1.2962e-02  9.6444e-03  2.2720e-02  4.0436e+01  1.2898e-02  6.9346e-03  2.6248e-03  0:08:40 1697
   304  1.3091e-02  9.7009e-03  2.2864e-02  4.1653e+01  1.3026e-02  6.8715e-03  2.6254e-03  0:06:55 1696
   305  1.3218e-02  9.7584e-03  2.3004e-02  4.2735e+01  1.3153e-02  6.8239e-03  2.6256e-03  0:05:32 1695
   306  1.3344e-02  9.8152e-03  2.3144e-02  4.3598e+01  1.3279e-02  6.7685e-03  2.6256e-03  0:10:04 1694
   307  1.3471e-02  9.8703e-03  2.3283e-02  4.4354e+01  1.3406e-02  6.7209e-03  2.6268e-03  0:08:03 1693
   308  1.3602e-02  9.9244e-03  2.3426e-02  4.5166e+01  1.3537e-02  6.6624e-03  2.6262e-03  0:06:26 1692

  iter  continuity  x-velocity  y-velocity  z-velocity      energy           k       omega     time/iter
   309  1.3740e-02  9.9768e-03  2.3572e-02  4.5957e+01  1.3674e-02  6.6089e-03  2.6274e-03  0:10:47 1691
   310  1.3885e-02  1.0027e-02  2.3722e-02  4.6618e+01  1.3819e-02  6.5533e-03  2.6273e-03  0:08:37 1690
   311  1.4040e-02  1.0073e-02  2.3876e-02  4.7173e+01  1.3974e-02  6.5051e-03  2.6342e-03  0:06:54 1689
   312  1.4206e-02  1.0119e-02  2.4036e-02  4.7642e+01  1.4140e-02  6.4666e-03  2.6366e-03  0:05:31 1688
   313  1.4386e-02  1.0164e-02  2.4205e-02  4.8082e+01  1.4320e-02  6.4308e-03  2.6370e-03  0:10:02 1687
   314  1.4579e-02  1.0207e-02  2.4380e-02  4.8354e+01  1.4514e-02  6.4061e-03  2.6354e-03  0:08:01 1686
   315  1.4786e-02  1.0248e-02  2.4556e-02  4.8429e+01  1.4721e-02  6.3827e-03  2.6371e-03  0:06:25 1685
   316  1.5001e-02  1.0286e-02  2.4729e-02  4.8540e+01  1.4936e-02  6.3794e-03  2.6437e-03  0:10:44 1684
   317  1.5221e-02  1.0322e-02  2.4901e-02  4.8534e+01  1.5156e-02  6.3885e-03  2.6487e-03  0:08:35 1683
   318  1.5447e-02  1.0360e-02  2.5085e-02  4.8271e+01  1.5382e-02  6.3889e-03  2.6466e-03  0:06:52 1682
   319  1.5682e-02  1.0401e-02  2.5276e-02  4.7826e+01  1.5617e-02  6.3853e-03  2.6462e-03  0:05:29 1681

  iter  continuity  x-velocity  y-velocity  z-velocity      energy           k       omega     time/iter
   320  1.5925e-02  1.0446e-02  2.5468e-02  4.7262e+01  1.5861e-02  6.3832e-03  2.6473e-03  0:09:59 1680
   321  1.6175e-02  1.0492e-02  2.5669e-02  4.7051e+01  1.6110e-02  6.3908e-03  2.6463e-03  0:07:59 1679
   322  1.6427e-02  1.0541e-02  2.5880e-02  4.7240e+01  1.6362e-02  6.4018e-03  2.6444e-03  0:06:23 1678
   323  1.6678e-02  1.0592e-02  2.6102e-02  4.7828e+01  1.6614e-02  6.4296e-03  2.6401e-03  0:10:42 1677
   324  1.6928e-02  1.0646e-02  2.6333e-02  4.8013e+01  1.6863e-02  6.4655e-03  2.6331e-03  0:08:33 1676
   325  1.7178e-02  1.0700e-02  2.6575e-02  4.7320e+01  1.7112e-02  6.4953e-03  2.6309e-03  0:06:50 1675
   326  1.7430e-02  1.0756e-02  2.6831e-02  4.6721e+01  1.7364e-02  6.4988e-03  2.6245e-03  0:05:28 1674
   327  1.7680e-02  1.0811e-02  2.7098e-02  4.6148e+01  1.7614e-02  6.4740e-03  2.6195e-03  0:09:57 1673
   328  1.7927e-02  1.0864e-02  2.7375e-02  4.5296e+01  1.7861e-02  6.4501e-03  2.6133e-03  0:07:57 1672
   329  1.8183e-02  1.0918e-02  2.7677e-02  4.4488e+01  1.8116e-02  6.4165e-03  2.6038e-03  0:06:22 1671
   330  1.8436e-02  1.0969e-02  2.8003e-02  4.3883e+01  1.8368e-02  6.3632e-03  2.5995e-03  0:10:39 1670

  iter  continuity  x-velocity  y-velocity  z-velocity      energy           k       omega     time/iter
   331  1.8678e-02  1.1018e-02  2.8352e-02  4.3565e+01  1.8610e-02  6.3023e-03  2.5939e-03  0:08:31 1669
   332  1.8922e-02  1.1066e-02  2.8712e-02  4.3417e+01  1.8853e-02  6.2505e-03  2.5898e-03  0:06:48 1668
   333  1.9145e-02  1.1112e-02  2.9083e-02  4.3523e+01  1.9076e-02  6.1903e-03  2.5868e-03  0:11:00 1667
   334  1.9355e-02  1.1154e-02  2.9468e-02  4.3913e+01  1.9285e-02  6.1085e-03  2.5858e-03  0:08:48 1666
   335  1.9560e-02  1.1191e-02  2.9862e-02  4.3681e+01  1.9491e-02  6.0184e-03  2.5834e-03  0:07:02 1665
   336  1.9719e-02  1.1222e-02  3.0262e-02  4.3705e+01  1.9649e-02  5.9313e-03  2.5675e-03  0:05:37 1664
   337  1.9838e-02  1.1248e-02  3.0667e-02  4.3983e+01  1.9769e-02  5.8423e-03  2.5585e-03  0:10:02 1663
   338  1.9924e-02  1.1272e-02  3.1076e-02  4.4981e+01  1.9854e-02  5.7634e-03  2.5478e-03  0:08:02 1662
   339  1.9891e-02  1.1293e-02  3.1492e-02  4.6126e+01  1.9821e-02  5.6787e-03  2.5382e-03  0:06:25 1661
   340  1.9774e-02  1.1309e-02  3.1927e-02  4.6579e+01  1.9704e-02  5.5997e-03  2.5274e-03  0:10:40 1660
   341  1.9611e-02  1.1321e-02  3.2352e-02  4.7402e+01  1.9541e-02  5.5223e-03  2.5189e-03  0:08:32 1659

  iter  continuity  x-velocity  y-velocity  z-velocity      energy           k       omega     time/iter
   342  1.9325e-02  1.1331e-02  3.2770e-02  4.7552e+01  1.9256e-02  5.4546e-03  2.5122e-03  0:06:49 1658
   343  1.8989e-02  1.1338e-02  3.3167e-02  4.8039e+01  1.8920e-02  5.3865e-03  2.4986e-03  0:10:58 1657
   344  1.8596e-02  1.1341e-02  3.3529e-02  4.8115e+01  1.8528e-02  5.3223e-03  2.4822e-03  0:08:46 1656
   345  1.8090e-02  1.1339e-02  3.3866e-02  4.7830e+01  1.8023e-02  5.2645e-03  2.4633e-03  0:07:01 1655
   346  1.7525e-02  1.1334e-02  3.4167e-02  4.7191e+01  1.7459e-02  5.2110e-03  2.4450e-03  0:11:07 1654
   347  1.6930e-02  1.1327e-02  3.4435e-02  4.6218e+01  1.6865e-02  5.1535e-03  2.4268e-03  0:08:54 1653
   348  1.6354e-02  1.1320e-02  3.4665e-02  4.5635e+01  1.6290e-02  5.0912e-03  2.4042e-03  0:07:07 1652
   349  1.5769e-02  1.1314e-02  3.4857e-02  4.5005e+01  1.5706e-02  5.0293e-03  2.3806e-03  0:05:41 1651
   350  1.5159e-02  1.1309e-02  3.5011e-02  4.4243e+01  1.5098e-02  4.9495e-03  2.3569e-03  0:10:03 1650
   351  1.4515e-02  1.1306e-02  3.5135e-02  4.3669e+01  1.4456e-02  4.8807e-03  2.3358e-03  0:08:02 1649
   352  1.3832e-02  1.1305e-02  3.5235e-02  4.3155e+01  1.3776e-02  4.8236e-03  2.3128e-03  0:06:25 1648

  iter  continuity  x-velocity  y-velocity  z-velocity      energy           k       omega     time/iter
   353  1.3114e-02  1.1307e-02  3.5307e-02  4.2614e+01  1.3060e-02  4.7596e-03  2.2857e-03  0:10:37 1647
   354  1.2389e-02  1.1309e-02  3.5351e-02  4.2091e+01  1.2339e-02  4.6947e-03  2.2643e-03  0:08:30 1646
   355  1.1669e-02  1.1310e-02  3.5378e-02  4.1676e+01  1.1622e-02  4.6406e-03  2.2389e-03  0:06:47 1645
   356  1.0957e-02  1.1314e-02  3.5378e-02  4.1216e+01  1.0912e-02  4.5933e-03  2.2095e-03  0:10:55 1644
   357  1.0253e-02  1.1318e-02  3.5350e-02  4.0621e+01  1.0211e-02  4.5450e-03  2.1833e-03  0:08:43 1643
   358  9.5526e-03  1.1324e-02  3.5291e-02  3.9931e+01  9.5135e-03  4.4938e-03  2.1601e-03  0:06:58 1642
   359  8.8601e-03  1.1331e-02  3.5223e-02  3.9253e+01  8.8238e-03  4.4522e-03  2.1389e-03  0:11:03 1641
   360  8.1793e-03  1.1339e-02  3.5143e-02  3.8583e+01  8.1458e-03  4.4130e-03  2.1139e-03  0:08:50 1640
   361  7.5103e-03  1.1347e-02  3.5044e-02  3.8013e+01  7.4796e-03  4.3702e-03  2.0916e-03  0:07:04 1639
   362  6.8540e-03  1.1355e-02  3.4938e-02  3.7421e+01  6.8260e-03  4.3299e-03  2.0678e-03  0:11:06 1638
   363  6.2144e-03  1.1363e-02  3.4817e-02  3.6860e+01  6.1890e-03  4.2972e-03  2.0504e-03  0:08:53 1637

  iter  continuity  x-velocity  y-velocity  z-velocity      energy           k       omega     time/iter
   364  5.6007e-03  1.1368e-02  3.4691e-02  3.6312e+01  5.5776e-03  4.2673e-03  2.0372e-03  0:07:06 1636
   365  5.0216e-03  1.1373e-02  3.4561e-02  3.5816e+01  5.0006e-03  4.2428e-03  2.0239e-03  0:11:08 1635
   366  4.5053e-03  1.1379e-02  3.4428e-02  3.5330e+01  4.4861e-03  4.2209e-03  2.0116e-03  0:08:54 1634
   367  4.0898e-03  1.1382e-02  3.4290e-02  3.4810e+01  4.0718e-03  4.2116e-03  2.0022e-03  0:07:07 1633
   368  3.8171e-03  1.1382e-02  3.4150e-02  3.4319e+01  3.7997e-03  4.2040e-03  1.9983e-03  0:05:41 1632
   369  3.7262e-03  1.1381e-02  3.4010e-02  3.3880e+01  3.7086e-03  4.1987e-03  1.9971e-03  0:09:59 1631
   370  3.8496e-03  1.1375e-02  3.3868e-02  3.3485e+01  3.8312e-03  4.1985e-03  1.9999e-03  0:07:59 1630
   371  4.1809e-03  1.1366e-02  3.3731e-02  3.2983e+01  4.1609e-03  4.2014e-03  2.0059e-03  0:06:23 1629
   372  4.6502e-03  1.1358e-02  3.3594e-02  3.2451e+01  4.6280e-03  4.2039e-03  2.0118e-03  0:10:32 1628
   373  5.1376e-03  1.1349e-02  3.3439e-02  3.1765e+01  5.1127e-03  4.2065e-03  2.0185e-03  0:08:25 1627
   374  5.7367e-03  1.1334e-02  3.3289e-02  3.0931e+01  5.7090e-03  4.2149e-03  2.0255e-03  0:06:44 1626

  iter  continuity  x-velocity  y-velocity  z-velocity      energy           k       omega     time/iter
   375  6.4132e-03  1.1319e-02  3.3142e-02  3.0114e+01  6.3829e-03  4.2273e-03  2.0363e-03  0:05:23 1625
   376  7.1151e-03  1.1299e-02  3.2988e-02  2.9345e+01  7.0820e-03  4.2488e-03  2.0485e-03  0:09:43 1624
   377  7.8288e-03  1.1274e-02  3.2838e-02  2.8385e+01  7.7931e-03  4.2674e-03  2.0627e-03  0:07:46 1623
   378  8.5520e-03  1.1254e-02  3.2686e-02  2.7320e+01  8.5136e-03  4.2836e-03  2.0850e-03  0:06:13 1622
   379  9.1974e-03  1.1236e-02  3.2523e-02  2.6261e+01  9.1560e-03  4.3070e-03  2.1058e-03  0:10:22 1621
   380  9.7900e-03  1.1219e-02  3.2355e-02  2.4991e+01  9.7457e-03  4.3333e-03  2.1286e-03  0:08:17 1620
   381  1.0379e-02  1.1202e-02  3.2173e-02  2.4066e+01  1.0332e-02  4.3557e-03  2.1470e-03  0:06:38 1619
   382  1.0970e-02  1.1187e-02  3.1951e-02  2.3066e+01  1.0921e-02  4.3752e-03  2.1680e-03  0:05:18 1618
   383  1.1520e-02  1.1172e-02  3.1739e-02  2.2182e+01  1.1469e-02  4.3930e-03  2.1906e-03  0:09:38 1617
   384  1.1999e-02  1.1163e-02  3.1527e-02  2.1400e+01  1.1946e-02  4.4180e-03  2.2139e-03  0:07:42 1616
   385  1.2442e-02  1.1155e-02  3.1312e-02  2.0851e+01  1.2388e-02  4.4400e-03  2.2359e-03  0:06:09 1615

  iter  continuity  x-velocity  y-velocity  z-velocity      energy           k       omega     time/iter
   386  1.2838e-02  1.1147e-02  3.1095e-02  2.0370e+01  1.2782e-02  4.4590e-03  2.2629e-03  0:10:18 1614
   387  1.3216e-02  1.1138e-02  3.0865e-02  1.9816e+01  1.3159e-02  4.4759e-03  2.2909e-03  0:08:14 1613
   388  1.3567e-02  1.1136e-02  3.0643e-02  1.9390e+01  1.3509e-02  4.4958e-03  2.3189e-03  0:06:35 1612
   389  1.3880e-02  1.1140e-02  3.0445e-02  1.9319e+01  1.3823e-02  4.5205e-03  2.3425e-03  0:05:16 1611
   390  1.4091e-02  1.1139e-02  3.0131e-02  1.9351e+01  1.4033e-02  4.5433e-03  2.3665e-03  0:09:34 1610
   391  1.4315e-02  1.1145e-02  2.9857e-02  1.9364e+01  1.4257e-02  4.5612e-03  2.3882e-03  0:07:39 1609
   392  1.4440e-02  1.1149e-02  2.9605e-02  1.9487e+01  1.4382e-02  4.5748e-03  2.4110e-03  0:06:07 1608
   393  1.4486e-02  1.1150e-02  2.9377e-02  1.9733e+01  1.4429e-02  4.5869e-03  2.4206e-03  0:10:15 1607
   394  1.4469e-02  1.1152e-02  2.9159e-02  2.0011e+01  1.4412e-02  4.5989e-03  2.4265e-03  0:08:12 1606
   395  1.4403e-02  1.1150e-02  2.8931e-02  2.0371e+01  1.4347e-02  4.6105e-03  2.4320e-03  0:06:33 1605
   396  1.4361e-02  1.1146e-02  2.8745e-02  2.0925e+01  1.4305e-02  4.6134e-03  2.4395e-03  0:10:35 1604

  iter  continuity  x-velocity  y-velocity  z-velocity      energy           k       omega     time/iter
   397  1.4349e-02  1.1147e-02  2.8602e-02  2.1260e+01  1.4294e-02  4.6114e-03  2.4422e-03  0:08:28 1603
   398  1.4394e-02  1.1151e-02  2.8476e-02  2.1771e+01  1.4340e-02  4.6132e-03  2.4412e-03  0:06:46 1602
   399  1.4412e-02  1.1156e-02  2.8352e-02  2.1901e+01  1.4359e-02  4.6166e-03  2.4361e-03  0:10:45 1601
   400  1.4335e-02  1.1164e-02  2.8137e-02  2.2050e+01  1.4283e-02  4.6160e-03  2.4455e-03  0:08:35 1600
   401  1.4148e-02  1.1168e-02  2.8043e-02  2.2245e+01  1.4096e-02  4.6125e-03  2.4575e-03  0:06:52 1599
   402  1.4023e-02  1.1159e-02  2.7957e-02  2.2520e+01  1.3973e-02  4.6115e-03  2.4770e-03  0:10:49 1598
   403  1.3908e-02  1.1149e-02  2.7887e-02  2.2624e+01  1.3859e-02  4.6083e-03  2.4827e-03  0:08:39 1597
   404  1.3779e-02  1.1137e-02  2.7852e-02  2.2532e+01  1.3731e-02  4.6004e-03  2.4868e-03  0:06:55 1596
   405  1.3644e-02  1.1127e-02  2.7834e-02  2.2419e+01  1.3597e-02  4.5896e-03  2.4901e-03  0:05:32 1595
   406  1.3541e-02  1.1125e-02  2.7845e-02  2.2513e+01  1.3496e-02  4.5677e-03  2.4908e-03  0:09:44 1594
   407  1.3345e-02  1.1130e-02  2.7789e-02  2.2223e+01  1.3301e-02  4.5441e-03  2.4987e-03  0:07:47 1593

  iter  continuity  x-velocity  y-velocity  z-velocity      energy           k       omega     time/iter
   408  1.3003e-02  1.1131e-02  2.7761e-02  2.2106e+01  1.2960e-02  4.5262e-03  2.5152e-03  0:06:13 1592
   409  1.2750e-02  1.1136e-02  2.7766e-02  2.2055e+01  1.2707e-02  4.5122e-03  2.5242e-03  0:10:17 1591
   410  1.2537e-02  1.1145e-02  2.7850e-02  2.1928e+01  1.2496e-02  4.5047e-03  2.5249e-03  0:08:13 1590
   411  1.2328e-02  1.1161e-02  2.7985e-02  2.1563e+01  1.2289e-02  4.4976e-03  2.5252e-03  0:06:34 1589
   412  1.2146e-02  1.1189e-02  2.8156e-02  2.1618e+01  1.2108e-02  4.4902e-03  2.5311e-03  0:10:33 1588
   413  1.1853e-02  1.1218e-02  2.8204e-02  2.1820e+01  1.1816e-02  4.4885e-03  2.5189e-03  0:08:26 1587
   414  1.1525e-02  1.1255e-02  2.8239e-02  2.1888e+01  1.1490e-02  4.4858e-03  2.5035e-03  0:06:44 1586
   415  1.1227e-02  1.1304e-02  2.8279e-02  2.1905e+01  1.1193e-02  4.4797e-03  2.4897e-03  0:10:40 1585
   416  1.0900e-02  1.1352e-02  2.8336e-02  2.2010e+01  1.0867e-02  4.4643e-03  2.4776e-03  0:08:32 1584
   417  1.0597e-02  1.1397e-02  2.8426e-02  2.2356e+01  1.0566e-02  4.4468e-03  2.4669e-03  0:06:49 1583
   418  1.0256e-02  1.1446e-02  2.8531e-02  2.2412e+01  1.0226e-02  4.4294e-03  2.4712e-03  0:05:27 1582

  iter  continuity  x-velocity  y-velocity  z-velocity      energy           k       omega     time/iter
   419  9.9534e-03  1.1501e-02  2.8631e-02  2.2493e+01  9.9247e-03  4.4065e-03  2.4772e-03  0:09:38 1581
   420  9.6892e-03  1.1563e-02  2.8715e-02  2.2549e+01  9.6619e-03  4.3839e-03  2.4774e-03  0:07:42 1580
   421  9.4380e-03  1.1636e-02  2.8793e-02  2.2901e+01  9.4122e-03  4.3750e-03  2.4818e-03  0:06:09 1579
   422  9.2059e-03  1.1717e-02  2.8844e-02  2.3317e+01  9.1813e-03  4.3738e-03  2.4825e-03  0:10:11 1578
   423  9.0042e-03  1.1803e-02  2.8886e-02  2.4043e+01  8.9805e-03  4.3819e-03  2.4898e-03  0:08:08 1577
   424  8.8296e-03  1.1889e-02  2.8922e-02  2.4965e+01  8.8065e-03  4.3912e-03  2.4873e-03  0:06:30 1576
   425  8.7127e-03  1.1975e-02  2.8932e-02  2.5530e+01  8.6902e-03  4.3950e-03  2.4838e-03  0:10:27 1575
   426  8.5970e-03  1.2052e-02  2.8956e-02  2.6051e+01  8.5750e-03  4.3994e-03  2.4765e-03  0:08:21 1574
   427  8.5825e-03  1.2128e-02  2.8963e-02  2.6216e+01  8.5608e-03  4.4059e-03  2.4702e-03  0:06:41 1573
   428  8.6059e-03  1.2200e-02  2.8944e-02  2.6195e+01  8.5843e-03  4.4205e-03  2.4618e-03  0:05:21 1572
   429  8.6384e-03  1.2267e-02  2.8928e-02  2.6210e+01  8.6168e-03  4.4368e-03  2.4566e-03  0:09:30 1571

  iter  continuity  x-velocity  y-velocity  z-velocity      energy           k       omega     time/iter
   430  8.7118e-03  1.2329e-02  2.8929e-02  2.6130e+01  8.6900e-03  4.4550e-03  2.4498e-03  0:07:36 1570
   431  8.8332e-03  1.2389e-02  2.8942e-02  2.6121e+01  8.8112e-03  4.4800e-03  2.4391e-03  0:06:05 1569
   432  8.9850e-03  1.2448e-02  2.8957e-02  2.5939e+01  8.9628e-03  4.5020e-03  2.4307e-03  0:10:05 1568
   433  9.1492e-03  1.2505e-02  2.8966e-02  2.5977e+01  9.1266e-03  4.5280e-03  2.4213e-03  0:08:04 1567
   434  9.3262e-03  1.2560e-02  2.8966e-02  2.6209e+01  9.3032e-03  4.5558e-03  2.4051e-03  0:06:27 1566
   435  9.5182e-03  1.2610e-02  2.8962e-02  2.6622e+01  9.4947e-03  4.5887e-03  2.3879e-03  0:10:22 1565
   436  9.7253e-03  1.2657e-02  2.8958e-02  2.7148e+01  9.7011e-03  4.6271e-03  2.3721e-03  0:08:17 1564
   437  9.9359e-03  1.2700e-02  2.8962e-02  2.7895e+01  9.9110e-03  4.6778e-03  2.3596e-03  0:06:38 1563
   438  1.0146e-02  1.2739e-02  2.8970e-02  2.8600e+01  1.0120e-02  4.7156e-03  2.3515e-03  0:10:30 1562
   439  1.0362e-02  1.2774e-02  2.8968e-02  2.8560e+01  1.0336e-02  4.7512e-03  2.3377e-03  0:08:24 1561
   440  1.0579e-02  1.2807e-02  2.8961e-02  2.8762e+01  1.0552e-02  4.7897e-03  2.3305e-03  0:06:43 1560

  iter  continuity  x-velocity  y-velocity  z-velocity      energy           k       omega     time/iter
   441  1.0771e-02  1.2838e-02  2.8952e-02  2.9044e+01  1.0743e-02  4.8364e-03  2.3230e-03  0:10:34 1559
   442  1.0921e-02  1.2863e-02  2.8932e-02  2.9365e+01  1.0893e-02  4.8880e-03  2.3149e-03  0:08:27 1558
   443  1.1079e-02  1.2889e-02  2.8911e-02  2.9787e+01  1.1050e-02  4.9414e-03  2.3077e-03  0:06:45 1557
   444  1.1211e-02  1.2911e-02  2.8901e-02  2.9908e+01  1.1181e-02  4.9929e-03  2.2933e-03  0:05:24 1556
   445  1.1314e-02  1.2930e-02  2.8883e-02  2.9788e+01  1.1283e-02  5.0471e-03  2.2840e-03  0:09:30 1555
   446  1.1400e-02  1.2947e-02  2.8861e-02  2.9549e+01  1.1369e-02  5.0998e-03  2.2827e-03  0:07:36 1554
   447  1.1468e-02  1.2960e-02  2.8828e-02  2.9364e+01  1.1436e-02  5.1555e-03  2.2829e-03  0:06:04 1553
   448  1.1520e-02  1.2970e-02  2.8786e-02  2.9503e+01  1.1488e-02  5.2123e-03  2.2750e-03  0:10:02 1552
   449  1.1562e-02  1.2981e-02  2.8740e-02  2.9718e+01  1.1529e-02  5.2719e-03  2.2713e-03  0:08:01 1551
   450  1.1597e-02  1.2992e-02  2.8693e-02  2.9729e+01  1.1564e-02  5.3309e-03  2.2665e-03  0:06:25 1550
   451  1.1599e-02  1.3002e-02  2.8638e-02  2.9859e+01  1.1566e-02  5.3884e-03  2.2622e-03  0:10:17 1549

  iter  continuity  x-velocity  y-velocity  z-velocity      energy           k       omega     time/iter
   452  1.1585e-02  1.3013e-02  2.8558e-02  3.0208e+01  1.1552e-02  5.4421e-03  2.2580e-03  0:08:13 1548
   453  1.1555e-02  1.3023e-02  2.8492e-02  3.0691e+01  1.1521e-02  5.4905e-03  2.2548e-03  0:06:35 1547
   454  1.1506e-02  1.3036e-02  2.8431e-02  3.1259e+01  1.1472e-02  5.5375e-03  2.2559e-03  0:10:25 1546
   455  1.1443e-02  1.3049e-02  2.8378e-02  3.2042e+01  1.1409e-02  5.5883e-03  2.2598e-03  0:08:19 1545
   456  1.1367e-02  1.3063e-02  2.8334e-02  3.2856e+01  1.1333e-02  5.6356e-03  2.2637e-03  0:06:39 1544
   457  1.1279e-02  1.3078e-02  2.8294e-02  3.3069e+01  1.1245e-02  5.6694e-03  2.2682e-03  0:10:28 1543
   458  1.1176e-02  1.3095e-02  2.8255e-02  3.3077e+01  1.1141e-02  5.7020e-03  2.2731e-03  0:08:22 1542
   459  1.1061e-02  1.3114e-02  2.8219e-02  3.2781e+01  1.1026e-02  5.7409e-03  2.2743e-03  0:06:41 1541
   460  1.0929e-02  1.3135e-02  2.8187e-02  3.2404e+01  1.0895e-02  5.7785e-03  2.2699e-03  0:10:29 1540
   461  1.0780e-02  1.3156e-02  2.8182e-02  3.1953e+01  1.0745e-02  5.8200e-03  2.2649e-03  0:08:23 1539
   462  1.0608e-02  1.3176e-02  2.8190e-02  3.1293e+01  1.0574e-02  5.8577e-03  2.2623e-03  0:06:42 1538

  iter  continuity  x-velocity  y-velocity  z-velocity      energy           k       omega     time/iter
   463  1.0420e-02  1.3197e-02  2.8207e-02  3.0873e+01  1.0386e-02  5.8942e-03  2.2602e-03  0:10:29 1537
   464  1.0218e-02  1.3214e-02  2.8223e-02  3.0619e+01  1.0184e-02  5.9293e-03  2.2611e-03  0:08:23 1536
   465  1.0016e-02  1.3232e-02  2.8239e-02  3.0199e+01  9.9819e-03  5.9656e-03  2.2641e-03  0:06:42 1535
   466  9.7976e-03  1.3248e-02  2.8268e-02  3.0473e+01  9.7639e-03  5.9939e-03  2.2681e-03  0:10:28 1534
   467  9.5746e-03  1.3260e-02  2.8322e-02  3.1495e+01  9.5411e-03  6.0235e-03  2.2735e-03  0:08:22 1533
   468  9.3707e-03  1.3272e-02  2.8399e-02  3.1001e+01  9.3375e-03  6.0542e-03  2.2812e-03  0:06:41 1532
   469  9.1762e-03  1.3284e-02  2.8487e-02  3.0467e+01  9.1433e-03  6.0807e-03  2.2852e-03  0:05:21 1531
   470  8.9711e-03  1.3294e-02  2.8587e-02  3.0517e+01  8.9385e-03  6.1042e-03  2.2832e-03  0:09:23 1530
   471  8.7619e-03  1.3301e-02  2.8694e-02  3.0409e+01  8.7297e-03  6.1315e-03  2.2828e-03  0:07:30 1529
   472  8.5621e-03  1.3306e-02  2.8815e-02  3.0286e+01  8.5302e-03  6.1664e-03  2.2902e-03  0:06:00 1528
   473  8.3620e-03  1.3309e-02  2.8946e-02  3.0565e+01  8.3305e-03  6.2010e-03  2.2977e-03  0:09:53 1527

  iter  continuity  x-velocity  y-velocity  z-velocity      energy           k       omega     time/iter
   474  8.1612e-03  1.3309e-02  2.9076e-02  3.1004e+01  8.1300e-03  6.2332e-03  2.2964e-03  0:07:54 1526
   475  7.9729e-03  1.3306e-02  2.9214e-02  3.1492e+01  7.9420e-03  6.2624e-03  2.2969e-03  0:06:19 1525
   476  7.7946e-03  1.3304e-02  2.9354e-02  3.2143e+01  7.7641e-03  6.2805e-03  2.2894e-03  0:10:08 1524
   477  7.6253e-03  1.3303e-02  2.9496e-02  3.2634e+01  7.5952e-03  6.2998e-03  2.2849e-03  0:08:06 1523
   478  7.4656e-03  1.3301e-02  2.9645e-02  3.2959e+01  7.4359e-03  6.3212e-03  2.2757e-03  0:06:28 1522
   479  7.3140e-03  1.3299e-02  2.9811e-02  3.3160e+01  7.2847e-03  6.3479e-03  2.2717e-03  0:10:15 1521
   480  7.1659e-03  1.3297e-02  2.9981e-02  3.3294e+01  7.1370e-03  6.3709e-03  2.2728e-03  0:08:11 1520
   481  7.0128e-03  1.3295e-02  3.0149e-02  3.3236e+01  6.9843e-03  6.3986e-03  2.2785e-03  0:06:33 1519
   482  6.8552e-03  1.3291e-02  3.0317e-02  3.3076e+01  6.8269e-03  6.4313e-03  2.2844e-03  0:10:18 1518
   483  6.6939e-03  1.3285e-02  3.0497e-02  3.3194e+01  6.6660e-03  6.4690e-03  2.2862e-03  0:08:14 1517
   484  6.5440e-03  1.3280e-02  3.0680e-02  3.3885e+01  6.5164e-03  6.5058e-03  2.2801e-03  0:06:35 1516

  iter  continuity  x-velocity  y-velocity  z-velocity      energy           k       omega     time/iter
   485  6.3924e-03  1.3274e-02  3.0858e-02  3.4816e+01  6.3650e-03  6.5391e-03  2.2779e-03  0:10:19 1515
   486  6.2442e-03  1.3266e-02  3.1029e-02  3.5825e+01  6.2171e-03  6.5745e-03  2.2773e-03  0:08:15 1514
   487  6.0914e-03  1.3253e-02  3.1196e-02  3.6935e+01  6.0645e-03  6.6113e-03  2.2732e-03  0:06:35 1513
   488  5.9607e-03  1.3238e-02  3.1361e-02  3.7892e+01  5.9341e-03  6.6528e-03  2.2724e-03  0:10:19 1512
   489  5.8669e-03  1.3224e-02  3.1523e-02  3.8639e+01  5.8406e-03  6.6921e-03  2.2819e-03  0:08:14 1511
   490  5.7879e-03  1.3209e-02  3.1681e-02  3.8947e+01  5.7619e-03  6.7179e-03  2.2932e-03  0:06:35 1510
   491  5.7134e-03  1.3192e-02  3.1834e-02  3.8911e+01  5.6876e-03  6.7404e-03  2.3022e-03  0:10:18 1509
   492  5.6531e-03  1.3172e-02  3.1977e-02  3.8702e+01  5.6276e-03  6.7660e-03  2.3059e-03  0:08:14 1508
   493  5.6070e-03  1.3152e-02  3.2115e-02  3.8487e+01  5.5817e-03  6.8039e-03  2.3106e-03  0:06:35 1507
   494  5.5760e-03  1.3130e-02  3.2244e-02  3.8240e+01  5.5510e-03  6.8528e-03  2.3190e-03  0:10:17 1506
   495  5.5626e-03  1.3109e-02  3.2370e-02  3.7942e+01  5.5377e-03  6.8990e-03  2.3222e-03  0:08:13 1505

  iter  continuity  x-velocity  y-velocity  z-velocity      energy           k       omega     time/iter
   496  5.5645e-03  1.3085e-02  3.2486e-02  3.7486e+01  5.5399e-03  6.9302e-03  2.3305e-03  0:06:34 1504
   497  5.5799e-03  1.3062e-02  3.2599e-02  3.6514e+01  5.5554e-03  6.9489e-03  2.3364e-03  0:10:16 1503
   498  5.6115e-03  1.3039e-02  3.2710e-02  3.5271e+01  5.5871e-03  6.9645e-03  2.3367e-03  0:08:12 1502
   499  5.6518e-03  1.3018e-02  3.2817e-02  3.4356e+01  5.6275e-03  6.9849e-03  2.3358e-03  0:06:34 1501
   500  5.7004e-03  1.2993e-02  3.2924e-02  3.3108e+01  5.6763e-03  7.0090e-03  2.3346e-03  0:10:15 1500
   501  5.7502e-03  1.2969e-02  3.3032e-02  3.1838e+01  5.7261e-03  7.0336e-03  2.3337e-03  0:08:11 1499
   502  5.7990e-03  1.2945e-02  3.3143e-02  3.0634e+01  5.7750e-03  7.0569e-03  2.3392e-03  0:06:33 1498
   503  5.8460e-03  1.2919e-02  3.3255e-02  2.9559e+01  5.8220e-03  7.0806e-03  2.3495e-03  0:10:13 1497
   504  5.8896e-03  1.2894e-02  3.3369e-02  2.8628e+01  5.8656e-03  7.1077e-03  2.3546e-03  0:08:10 1496
   505  5.9366e-03  1.2870e-02  3.3489e-02  2.8013e+01  5.9125e-03  7.1359e-03  2.3628e-03  0:06:32 1495
   506  5.9914e-03  1.2848e-02  3.3615e-02  2.7614e+01  5.9672e-03  7.1778e-03  2.3687e-03  0:10:12 1494

  iter  continuity  x-velocity  y-velocity  z-velocity      energy           k       omega     time/iter
   507  6.0477e-03  1.2828e-02  3.3746e-02  2.7393e+01  6.0235e-03  7.2168e-03  2.3727e-03  0:08:09 1493
   508  6.1056e-03  1.2810e-02  3.3881e-02  2.7130e+01  6.0812e-03  7.2605e-03  2.3754e-03  0:06:31 1492
   509  6.1589e-03  1.2793e-02  3.4018e-02  2.6996e+01  6.1343e-03  7.2986e-03  2.3808e-03  0:10:11 1491
   510  6.2080e-03  1.2779e-02  3.4161e-02  2.6828e+01  6.1832e-03  7.3358e-03  2.3834e-03  0:08:09 1490
   511  6.2595e-03  1.2767e-02  3.4307e-02  2.6599e+01  6.2346e-03  7.3758e-03  2.3856e-03  0:06:31 1489
   512  6.3181e-03  1.2758e-02  3.4457e-02  2.6398e+01  6.2930e-03  7.4144e-03  2.3918e-03  0:10:10 1488
   513  6.3769e-03  1.2754e-02  3.4613e-02  2.6006e+01  6.3517e-03  7.4478e-03  2.3960e-03  0:08:08 1487
   514  6.4351e-03  1.2754e-02  3.4773e-02  2.5438e+01  6.4096e-03  7.4422e-03  2.4014e-03  0:06:30 1486
   515  6.4919e-03  1.2758e-02  3.4935e-02  2.4759e+01  6.4662e-03  7.4311e-03  2.4064e-03  0:05:12 1485
   516  6.5415e-03  1.2764e-02  3.5093e-02  2.4152e+01  6.5156e-03  7.4226e-03  2.4123e-03  0:09:06 1484
   517  6.5804e-03  1.2772e-02  3.5253e-02  2.3757e+01  6.5542e-03  7.4196e-03  2.4174e-03  0:07:16 1483

  iter  continuity  x-velocity  y-velocity  z-velocity      energy           k       omega     time/iter
   518  6.6165e-03  1.2782e-02  3.5413e-02  2.3438e+01  6.5901e-03  7.4102e-03  2.4198e-03  0:05:49 1482
   519  6.6416e-03  1.2795e-02  3.5574e-02  2.3143e+01  6.6150e-03  7.4035e-03  2.4217e-03  0:09:35 1481
   520  6.6551e-03  1.2809e-02  3.5734e-02  2.2804e+01  6.6283e-03  7.4030e-03  2.4245e-03  0:07:40 1480
   521  6.6548e-03  1.2823e-02  3.5890e-02  2.2552e+01  6.6277e-03  7.3969e-03  2.4288e-03  0:06:08 1479
   522  6.6404e-03  1.2839e-02  3.6040e-02  2.2412e+01  6.6130e-03  7.3878e-03  2.4313e-03  0:09:49 1478
   523  6.6211e-03  1.2854e-02  3.6191e-02  2.2395e+01  6.5935e-03  7.3712e-03  2.4293e-03  0:07:51 1477
   524  6.6007e-03  1.2869e-02  3.6340e-02  2.2444e+01  6.5729e-03  7.3524e-03  2.4313e-03  0:06:17 1476
   525  6.5804e-03  1.2881e-02  3.6489e-02  2.2616e+01  6.5524e-03  7.3342e-03  2.4330e-03  0:09:56 1475
   526  6.5609e-03  1.2892e-02  3.6637e-02  2.2794e+01  6.5327e-03  7.3244e-03  2.4311e-03  0:07:57 1474
   527  6.5428e-03  1.2905e-02  3.6784e-02  2.3106e+01  6.5145e-03  7.3165e-03  2.4295e-03  0:06:21 1473
   528  6.5286e-03  1.2919e-02  3.6935e-02  2.3523e+01  6.5002e-03  7.3102e-03  2.4293e-03  0:09:59 1472

  iter  continuity  x-velocity  y-velocity  z-velocity      energy           k       omega     time/iter
   529  6.5169e-03  1.2934e-02  3.7088e-02  2.4158e+01  6.4884e-03  7.2979e-03  2.4292e-03  0:07:59 1471
   530  6.5056e-03  1.2950e-02  3.7243e-02  2.4898e+01  6.4770e-03  7.2814e-03  2.4275e-03  0:06:23 1470
   531  6.4973e-03  1.2967e-02  3.7398e-02  2.5634e+01  6.4687e-03  7.2642e-03  2.4241e-03  0:10:00 1469
   532  6.4906e-03  1.2986e-02  3.7553e-02  2.6150e+01  6.4619e-03  7.2491e-03  2.4218e-03  0:08:00 1468
   533  6.4870e-03  1.3005e-02  3.7707e-02  2.6514e+01  6.4584e-03  7.2502e-03  2.4198e-03  0:06:23 1467
   534  6.4928e-03  1.3026e-02  3.7859e-02  2.6838e+01  6.4641e-03  7.2436e-03  2.4167e-03  0:10:00 1466
   535  6.5018e-03  1.3048e-02  3.8006e-02  2.7250e+01  6.4732e-03  7.2540e-03  2.4103e-03  0:07:59 1465
   536  6.5142e-03  1.3069e-02  3.8149e-02  2.7659e+01  6.4856e-03  7.2674e-03  2.4082e-03  0:06:23 1464
   537  6.5348e-03  1.3092e-02  3.8291e-02  2.8041e+01  6.5063e-03  7.2537e-03  2.4055e-03  0:09:59 1463
   538  6.5628e-03  1.3118e-02  3.8428e-02  2.8271e+01  6.5344e-03  7.2340e-03  2.3992e-03  0:07:59 1462
   539  6.5769e-03  1.3146e-02  3.8563e-02  2.8134e+01  6.5485e-03  7.2113e-03  2.3941e-03  0:06:23 1461

  iter  continuity  x-velocity  y-velocity  z-velocity      energy           k       omega     time/iter
   540  6.5735e-03  1.3173e-02  3.8696e-02  2.7763e+01  6.5452e-03  7.1982e-03  2.3883e-03  0:09:58 1460
   541  6.5780e-03  1.3201e-02  3.8829e-02  2.7221e+01  6.5496e-03  7.1715e-03  2.3841e-03  0:07:58 1459
   542  6.5823e-03  1.3226e-02  3.8955e-02  2.6531e+01  6.5541e-03  7.1394e-03  2.3831e-03  0:06:22 1458
   543  6.5686e-03  1.3251e-02  3.9080e-02  2.5735e+01  6.5404e-03  7.1141e-03  2.3794e-03  0:09:57 1457
   544  6.5629e-03  1.3277e-02  3.9196e-02  2.4947e+01  6.5347e-03  7.1087e-03  2.3775e-03  0:07:57 1456
   545  6.5584e-03  1.3301e-02  3.9305e-02  2.4201e+01  6.5303e-03  7.1061e-03  2.3745e-03  0:06:22 1455
   546  6.5518e-03  1.3325e-02  3.9407e-02  2.3589e+01  6.5236e-03  7.1021e-03  2.3706e-03  0:09:56 1454
   547  6.5387e-03  1.3350e-02  3.9505e-02  2.3053e+01  6.5106e-03  7.0863e-03  2.3682e-03  0:07:56 1453
   548  6.5164e-03  1.3376e-02  3.9593e-02  2.2512e+01  6.4883e-03  7.0710e-03  2.3653e-03  0:06:21 1452
   549  6.4843e-03  1.3400e-02  3.9673e-02  2.1970e+01  6.4562e-03  7.0608e-03  2.3597e-03  0:09:55 1451
   550  6.4478e-03  1.3422e-02  3.9742e-02  2.1461e+01  6.4197e-03  7.0414e-03  2.3505e-03  0:07:55 1450

  iter  continuity  x-velocity  y-velocity  z-velocity      energy           k       omega     time/iter
   551  6.4089e-03  1.3442e-02  3.9804e-02  2.1009e+01  6.3809e-03  7.0180e-03  2.3445e-03  0:06:20 1449
   552  6.3670e-03  1.3459e-02  3.9856e-02  2.0573e+01  6.3389e-03  6.9911e-03  2.3390e-03  0:09:53 1448
   553  6.3200e-03  1.3472e-02  3.9900e-02  2.0134e+01  6.2920e-03  6.9838e-03  2.3305e-03  0:07:54 1447
   554  6.2695e-03  1.3483e-02  3.9937e-02  1.9667e+01  6.2415e-03  6.9807e-03  2.3189e-03  0:06:19 1446
   555  6.2163e-03  1.3493e-02  3.9963e-02  1.9282e+01  6.1882e-03  6.9786e-03  2.3100e-03  0:09:52 1445
   556  6.1595e-03  1.3499e-02  3.9984e-02  1.8992e+01  6.1314e-03  6.9701e-03  2.3033e-03  0:07:53 1444
   557  6.1057e-03  1.3503e-02  3.9998e-02  1.8847e+01  6.0775e-03  6.9635e-03  2.2990e-03  0:06:18 1443
   558  6.0626e-03  1.3505e-02  4.0008e-02  1.8787e+01  6.0344e-03  6.9650e-03  2.2949e-03  0:05:03 1442
   559  6.0309e-03  1.3506e-02  4.0011e-02  1.8900e+01  6.0026e-03  6.9588e-03  2.2926e-03  0:08:50 1441
   560  6.0067e-03  1.3505e-02  4.0011e-02  1.9029e+01  5.9785e-03  6.9574e-03  2.2894e-03  0:07:04 1440
   561  5.9969e-03  1.3503e-02  4.0003e-02  1.9122e+01  5.9686e-03  6.9530e-03  2.2838e-03  0:05:39 1439

  iter  continuity  x-velocity  y-velocity  z-velocity      energy           k       omega     time/iter
   562  6.0002e-03  1.3501e-02  3.9988e-02  1.9262e+01  5.9719e-03  6.9429e-03  2.2814e-03  0:09:18 1438
   563  6.0157e-03  1.3499e-02  3.9968e-02  1.9460e+01  5.9873e-03  6.9257e-03  2.2780e-03  0:07:26 1437
   564  6.0397e-03  1.3495e-02  3.9942e-02  1.9653e+01  6.0113e-03  6.9121e-03  2.2749e-03  0:05:57 1436
   565  6.0697e-03  1.3487e-02  3.9912e-02  1.9775e+01  6.0413e-03  6.8891e-03  2.2716e-03  0:09:32 1435
   566  6.1148e-03  1.3477e-02  3.9877e-02  1.9886e+01  6.0864e-03  6.8664e-03  2.2644e-03  0:07:38 1434
   567  6.1732e-03  1.3469e-02  3.9840e-02  2.0088e+01  6.1447e-03  6.8476e-03  2.2566e-03  0:06:06 1433
   568  6.2218e-03  1.3461e-02  3.9797e-02  2.0268e+01  6.1934e-03  6.8291e-03  2.2506e-03  0:09:39 1432
   569  6.3017e-03  1.3456e-02  3.9754e-02  2.0475e+01  6.2734e-03  6.8143e-03  2.2445e-03  0:07:43 1431
   570  6.4026e-03  1.3455e-02  3.9713e-02  2.0765e+01  6.3742e-03  6.7952e-03  2.2360e-03  0:06:10 1430
   571  6.5150e-03  1.3459e-02  3.9673e-02  2.1135e+01  6.4867e-03  6.7677e-03  2.2237e-03  0:09:42 1429
   572  6.6369e-03  1.3467e-02  3.9635e-02  2.1502e+01  6.6087e-03  6.7398e-03  2.2126e-03  0:07:45 1428

  iter  continuity  x-velocity  y-velocity  z-velocity      energy           k       omega     time/iter
   573  6.7642e-03  1.3479e-02  3.9596e-02  2.1901e+01  6.7360e-03  6.7147e-03  2.2024e-03  0:06:12 1427
   574  6.8999e-03  1.3494e-02  3.9558e-02  2.2026e+01  6.8716e-03  6.6938e-03  2.1956e-03  0:09:42 1426
   575  7.0399e-03  1.3511e-02  3.9523e-02  2.1393e+01  7.0115e-03  6.6745e-03  2.1887e-03  0:07:46 1425
   576  7.1894e-03  1.3530e-02  3.9489e-02  2.0611e+01  7.1610e-03  6.6546e-03  2.1862e-03  0:06:12 1424
   577  7.3400e-03  1.3553e-02  3.9460e-02  1.9809e+01  7.3114e-03  6.6374e-03  2.1865e-03  0:09:42 1423
   578  7.4857e-03  1.3577e-02  3.9437e-02  1.9038e+01  7.4571e-03  6.6157e-03  2.1907e-03  0:07:45 1422
   579  7.6260e-03  1.3599e-02  3.9422e-02  1.8313e+01  7.5973e-03  6.5884e-03  2.1936e-03  0:06:12 1421
   580  7.7591e-03  1.3618e-02  3.9414e-02  1.7702e+01  7.7304e-03  6.5624e-03  2.1986e-03  0:04:57 1420
   581  7.8842e-03  1.3639e-02  3.9411e-02  1.7142e+01  7.8554e-03  6.5340e-03  2.2046e-03  0:08:42 1419
   582  8.0017e-03  1.3661e-02  3.9417e-02  1.6688e+01  7.9729e-03  6.5082e-03  2.2097e-03  0:06:57 1418
   583  8.1131e-03  1.3687e-02  3.9428e-02  1.6273e+01  8.0843e-03  6.4925e-03  2.2152e-03  0:05:33 1417

  iter  continuity  x-velocity  y-velocity  z-velocity      energy           k       omega     time/iter
   584  8.2247e-03  1.3715e-02  3.9450e-02  1.5874e+01  8.1958e-03  6.4763e-03  2.2250e-03  0:09:10 1416
   585  8.3312e-03  1.3742e-02  3.9480e-02  1.5313e+01  8.3022e-03  6.4537e-03  2.2294e-03  0:07:19 1415
   586  8.4307e-03  1.3770e-02  3.9520e-02  1.4809e+01  8.4018e-03  6.4312e-03  2.2321e-03  0:05:51 1414
   587  8.5271e-03  1.3798e-02  3.9571e-02  1.4624e+01  8.4981e-03  6.4112e-03  2.2372e-03  0:09:23 1413
   588  8.6214e-03  1.3827e-02  3.9629e-02  1.4420e+01  8.5925e-03  6.3873e-03  2.2428e-03  0:07:30 1412
   589  8.7130e-03  1.3855e-02  3.9701e-02  1.4340e+01  8.6841e-03  6.3513e-03  2.2467e-03  0:06:00 1411
   590  8.7984e-03  1.3884e-02  3.9786e-02  1.4264e+01  8.7696e-03  6.3150e-03  2.2512e-03  0:09:30 1410
   591  8.8765e-03  1.3915e-02  3.9884e-02  1.4169e+01  8.8477e-03  6.2841e-03  2.2566e-03  0:07:36 1409
   592  8.9472e-03  1.3946e-02  3.9992e-02  1.4251e+01  8.9185e-03  6.2529e-03  2.2624e-03  0:06:04 1408
   593  9.0105e-03  1.3979e-02  4.0116e-02  1.4026e+01  8.9818e-03  6.2261e-03  2.2671e-03  0:09:33 1407
   594  9.0676e-03  1.4010e-02  4.0256e-02  1.3915e+01  9.0390e-03  6.2077e-03  2.2725e-03  0:07:38 1406

  iter  continuity  x-velocity  y-velocity  z-velocity      energy           k       omega     time/iter
   595  9.1172e-03  1.4041e-02  4.0410e-02  1.4007e+01  9.0887e-03  6.1941e-03  2.2795e-03  0:06:06 1405
   596  9.1626e-03  1.4072e-02  4.0579e-02  1.4108e+01  9.1343e-03  6.1757e-03  2.2844e-03  0:09:33 1404
   597  9.2047e-03  1.4101e-02  4.0761e-02  1.4220e+01  9.1765e-03  6.1546e-03  2.2891e-03  0:07:38 1403
   598  9.2450e-03  1.4132e-02  4.0957e-02  1.4528e+01  9.2169e-03  6.1290e-03  2.2941e-03  0:06:06 1402
   599  9.2874e-03  1.4159e-02  4.1166e-02  1.4877e+01  9.2594e-03  6.0995e-03  2.2968e-03  0:09:33 1401
   600  9.3244e-03  1.4185e-02  4.1385e-02  1.5162e+01  9.2965e-03  6.0689e-03  2.2949e-03  0:07:38 1400
   601  9.3627e-03  1.4207e-02  4.1615e-02  1.5601e+01  9.3349e-03  6.0367e-03  2.2970e-03  0:06:06 1399
   602  9.4037e-03  1.4227e-02  4.1860e-02  1.6024e+01  9.3760e-03  6.0099e-03  2.3020e-03  0:04:53 1398
   603  9.4484e-03  1.4247e-02  4.2118e-02  1.6450e+01  9.4208e-03  5.9892e-03  2.3074e-03  0:08:33 1397
   604  9.5088e-03  1.4264e-02  4.2387e-02  1.6876e+01  9.4812e-03  5.9770e-03  2.3134e-03  0:06:50 1396
   605  9.5673e-03  1.4283e-02  4.2659e-02  1.7175e+01  9.5397e-03  5.9635e-03  2.3218e-03  0:05:28 1395

  iter  continuity  x-velocity  y-velocity  z-velocity      energy           k       omega     time/iter
   606  9.6116e-03  1.4297e-02  4.2943e-02  1.7472e+01  9.5839e-03  5.9428e-03  2.3298e-03  0:09:01 1394
   607  9.6393e-03  1.4305e-02  4.3231e-02  1.7638e+01  9.6116e-03  5.9172e-03  2.3350e-03  0:07:13 1393
   608  9.6314e-03  1.4303e-02  4.3509e-02  1.7765e+01  9.6038e-03  5.8866e-03  2.3412e-03  0:05:46 1392
   609  9.6016e-03  1.4300e-02  4.3778e-02  1.7960e+01  9.5740e-03  5.8543e-03  2.3468e-03  0:04:36 1391
   610  9.5842e-03  1.4304e-02  4.4007e-02  1.8062e+01  9.5566e-03  5.8310e-03  2.3544e-03  0:08:19 1390
   611  9.5816e-03  1.4315e-02  4.4213e-02  1.8183e+01  9.5540e-03  5.7994e-03  2.3627e-03  0:06:39 1389
   612  9.5937e-03  1.4327e-02  4.4443e-02  1.8288e+01  9.5660e-03  5.7680e-03  2.3699e-03  0:05:19 1388
   613  9.5984e-03  1.4341e-02  4.4681e-02  1.8360e+01  9.5707e-03  5.7332e-03  2.3722e-03  0:08:52 1387
   614  9.6374e-03  1.4359e-02  4.4919e-02  1.8459e+01  9.6095e-03  5.6982e-03  2.3727e-03  0:07:06 1386
   615  9.6827e-03  1.4371e-02  4.5143e-02  1.8516e+01  9.6545e-03  5.6622e-03  2.3781e-03  0:05:40 1385
   616  9.7099e-03  1.4385e-02  4.5368e-02  1.8527e+01  9.6816e-03  5.6309e-03  2.3819e-03  0:09:09 1384

  iter  continuity  x-velocity  y-velocity  z-velocity      energy           k       omega     time/iter
   617  9.7124e-03  1.4400e-02  4.5590e-02  1.8408e+01  9.6840e-03  5.5997e-03  2.3829e-03  0:07:19 1383
   618  9.7205e-03  1.4417e-02  4.5806e-02  1.8168e+01  9.6920e-03  5.5740e-03  2.3847e-03  0:05:51 1382
   619  9.7412e-03  1.4441e-02  4.6020e-02  1.7886e+01  9.7125e-03  5.5493e-03  2.3887e-03  0:04:40 1381
   620  9.7629e-03  1.4468e-02  4.6232e-02  1.7553e+01  9.7339e-03  5.5195e-03  2.3911e-03  0:08:20 1380
   621  9.7803e-03  1.4499e-02  4.6440e-02  1.7209e+01  9.7512e-03  5.4944e-03  2.3948e-03  0:06:40 1379
   622  9.7995e-03  1.4536e-02  4.6642e-02  1.6890e+01  9.7702e-03  5.4675e-03  2.4010e-03  0:05:20 1378
   623  9.8292e-03  1.4577e-02  4.6844e-02  1.6613e+01  9.7996e-03  5.4445e-03  2.4047e-03  0:08:51 1377
   624  9.8650e-03  1.4620e-02  4.7043e-02  1.6366e+01  9.8351e-03  5.4166e-03  2.4041e-03  0:07:04 1376
   625  9.9106e-03  1.4665e-02  4.7237e-02  1.6125e+01  9.8804e-03  5.3815e-03  2.4065e-03  0:05:39 1375
   626  9.9655e-03  1.4716e-02  4.7426e-02  1.5923e+01  9.9350e-03  5.3441e-03  2.4068e-03  0:04:31 1374
[...]
  1838  2.4549e-03  8.4083e-03  2.1163e-02  2.3952e+00  2.4497e-03  1.6201e-03  8.0188e-04  0:00:55  162
  1839  2.4339e-03  8.3683e-03  2.1141e-02  2.3827e+00  2.4288e-03  1.6198e-03  7.9877e-04  0:00:44  161
  1840  2.4109e-03  8.3278e-03  2.1119e-02  2.3820e+00  2.4058e-03  1.6195e-03  7.9600e-04  0:00:35  160
  1841  2.3857e-03  8.2869e-03  2.1099e-02  2.4090e+00  2.3806e-03  1.6188e-03  7.9307e-04  0:00:28  159
  1842  2.3585e-03  8.2459e-03  2.1079e-02  2.5024e+00  2.3535e-03  1.6179e-03  7.9015e-04  0:00:54  158
  1843  2.3263e-03  8.2051e-03  2.1061e-02  2.5388e+00  2.3213e-03  1.6169e-03  7.8753e-04  0:00:43  157
  1844  2.2920e-03  8.1650e-03  2.1043e-02  2.5307e+00  2.2869e-03  1.6159e-03  7.8375e-04  0:00:34  156
  1845  2.2561e-03  8.1256e-03  2.1026e-02  2.5895e+00  2.2511e-03  1.6147e-03  7.7904e-04  0:00:27  155
  1846  2.2169e-03  8.0870e-03  2.1010e-02  2.7874e+00  2.2119e-03  1.6135e-03  7.7427e-04  0:00:52  154
  1847  2.1743e-03  8.0493e-03  2.0995e-02  2.8534e+00  2.1693e-03  1.6127e-03  7.7230e-04  0:00:41  153
  1848  2.1276e-03  8.0125e-03  2.0980e-02  2.7702e+00  2.1226e-03  1.6117e-03  7.7059e-04  0:00:33  152

  iter  continuity  x-velocity  y-velocity  z-velocity      energy           k       omega     time/iter
  1849  2.0786e-03  7.9767e-03  2.0966e-02  2.6379e+00  2.0736e-03  1.6107e-03  7.7216e-04  0:00:26  151
  1850  2.0266e-03  7.9418e-03  2.0953e-02  2.5271e+00  2.0217e-03  1.6087e-03  7.6975e-04  0:00:51  150
  1851  1.9707e-03  7.9076e-03  2.0940e-02  2.4987e+00  1.9658e-03  1.6069e-03  7.6552e-04  0:00:40  149
  1852  1.9118e-03  7.8739e-03  2.0929e-02  2.4888e+00  1.9069e-03  1.6053e-03  7.6183e-04  0:00:32  148
  1853  1.8506e-03  7.8404e-03  2.0919e-02  2.5159e+00  1.8457e-03  1.6036e-03  7.6046e-04  0:00:25  147
  1854  1.7865e-03  7.8076e-03  2.0911e-02  2.5564e+00  1.7816e-03  1.6017e-03  7.5829e-04  0:00:49  146
  1855  1.7204e-03  7.7751e-03  2.0903e-02  2.6020e+00  1.7156e-03  1.5995e-03  7.5555e-04  0:00:39  145
  1856  1.6542e-03  7.7428e-03  2.0894e-02  2.6398e+00  1.6494e-03  1.5973e-03  7.5363e-04  0:00:31  144
  1857  1.5876e-03  7.7106e-03  2.0886e-02  2.7010e+00  1.5828e-03  1.5951e-03  7.5147e-04  0:00:53  143
  1858  1.5212e-03  7.6787e-03  2.0877e-02  2.6894e+00  1.5165e-03  1.5933e-03  7.5201e-04  0:00:42  142
  1859  1.4547e-03  7.6467e-03  2.0868e-02  2.6525e+00  1.4500e-03  1.5910e-03  7.4853e-04  0:00:34  141

  iter  continuity  x-velocity  y-velocity  z-velocity      energy           k       omega     time/iter
  1860  1.3888e-03  7.6145e-03  2.0858e-02  2.6293e+00  1.3842e-03  1.5889e-03  7.4691e-04  0:00:27  140
  1861  1.3256e-03  7.5819e-03  2.0846e-02  2.6254e+00  1.3210e-03  1.5866e-03  7.4616e-04  0:00:49  139
  1862  1.2647e-03  7.5487e-03  2.0833e-02  2.6673e+00  1.2603e-03  1.5840e-03  7.4362e-04  0:00:39  138
  1863  1.2066e-03  7.5148e-03  2.0818e-02  2.6766e+00  1.2023e-03  1.5817e-03  7.4162e-04  0:00:31  137
  1864  1.1544e-03  7.4803e-03  2.0801e-02  2.6407e+00  1.1502e-03  1.5788e-03  7.3928e-04  0:00:25  136
  1865  1.1096e-03  7.4451e-03  2.0781e-02  2.6208e+00  1.1055e-03  1.5761e-03  7.3813e-04  0:00:47  135
  1866  1.0734e-03  7.4094e-03  2.0759e-02  2.5785e+00  1.0695e-03  1.5741e-03  7.3830e-04  0:00:37  134
  1867  1.0441e-03  7.3730e-03  2.0734e-02  2.5979e+00  1.0404e-03  1.5716e-03  7.3660e-04  0:00:29  133
  1868  1.0245e-03  7.3358e-03  2.0705e-02  2.5818e+00  1.0210e-03  1.5696e-03  7.3528e-04  0:00:23  132
  1869  1.0157e-03  7.2976e-03  2.0674e-02  2.5818e+00  1.0124e-03  1.5678e-03  7.3381e-04  0:00:45  131
  1870  1.0164e-03  7.2588e-03  2.0639e-02  2.5764e+00  1.0133e-03  1.5655e-03  7.3131e-04  0:00:35  130

  iter  continuity  x-velocity  y-velocity  z-velocity      energy           k       omega     time/iter
  1871  1.0266e-03  7.2195e-03  2.0601e-02  2.5459e+00  1.0237e-03  1.5630e-03  7.2870e-04  0:00:28  129
  1872  1.0442e-03  7.1800e-03  2.0559e-02  2.5248e+00  1.0416e-03  1.5606e-03  7.2725e-04  0:00:48  128
  1873  1.0681e-03  7.1402e-03  2.0514e-02  2.5075e+00  1.0656e-03  1.5580e-03  7.2449e-04  0:00:38  127
  1874  1.0987e-03  7.1002e-03  2.0465e-02  2.5066e+00  1.0964e-03  1.5556e-03  7.2302e-04  0:00:30  126
  1875  1.1329e-03  7.0599e-03  2.0412e-02  2.4896e+00  1.1308e-03  1.5532e-03  7.2063e-04  0:00:24  125
  1876  1.1709e-03  7.0195e-03  2.0356e-02  2.4733e+00  1.1688e-03  1.5513e-03  7.1895e-04  0:00:44  124
  1877  1.2118e-03  6.9790e-03  2.0296e-02  2.4614e+00  1.2098e-03  1.5494e-03  7.1819e-04  0:00:35  123
  1878  1.2537e-03  6.9385e-03  2.0233e-02  2.4664e+00  1.2518e-03  1.5476e-03  7.1646e-04  0:00:28  122
  1879  1.2963e-03  6.8980e-03  2.0167e-02  2.4663e+00  1.2944e-03  1.5457e-03  7.1519e-04  0:00:22  121
  1880  1.3392e-03  6.8575e-03  2.0099e-02  2.4549e+00  1.3372e-03  1.5436e-03  7.1447e-04  0:00:41  120
  1881  1.3816e-03  6.8169e-03  2.0028e-02  2.4257e+00  1.3797e-03  1.5414e-03  7.1427e-04  0:00:33  119

  iter  continuity  x-velocity  y-velocity  z-velocity      energy           k       omega     time/iter
  1882  1.4223e-03  6.7766e-03  1.9954e-02  2.3930e+00  1.4203e-03  1.5397e-03  7.1198e-04  0:00:26  118
  1883  1.4614e-03  6.7364e-03  1.9879e-02  2.4023e+00  1.4594e-03  1.5384e-03  7.1008e-04  0:00:21  117
  1884  1.4989e-03  6.6966e-03  1.9801e-02  2.4285e+00  1.4968e-03  1.5371e-03  7.0958e-04  0:00:40  116
  1885  1.5343e-03  6.6571e-03  1.9722e-02  2.4418e+00  1.5322e-03  1.5354e-03  7.0815e-04  0:00:31  115
  1886  1.5679e-03  6.6178e-03  1.9641e-02  2.4743e+00  1.5657e-03  1.5340e-03  7.0655e-04  0:00:25  114
  1887  1.5995e-03  6.5787e-03  1.9558e-02  2.4331e+00  1.5972e-03  1.5328e-03  7.0582e-04  0:00:20  113
  1888  1.6292e-03  6.5401e-03  1.9474e-02  2.3698e+00  1.6268e-03  1.5320e-03  7.0485e-04  0:00:38  112
  1889  1.6574e-03  6.5020e-03  1.9389e-02  2.3279e+00  1.6550e-03  1.5317e-03  7.0622e-04  0:00:30  111
  1890  1.6833e-03  6.4644e-03  1.9303e-02  2.3033e+00  1.6807e-03  1.5314e-03  7.0587e-04  0:00:24  110
  1891  1.7076e-03  6.4272e-03  1.9217e-02  2.3208e+00  1.7049e-03  1.5312e-03  7.0508e-04  0:00:19  109
  1892  1.7306e-03  6.3906e-03  1.9129e-02  2.3397e+00  1.7278e-03  1.5304e-03  7.0427e-04  0:00:37  108

  iter  continuity  x-velocity  y-velocity  z-velocity      energy           k       omega     time/iter
  1893  1.7521e-03  6.3543e-03  1.9041e-02  2.3317e+00  1.7492e-03  1.5295e-03  7.0384e-04  0:00:29  107
  1894  1.7726e-03  6.3186e-03  1.8953e-02  2.2917e+00  1.7697e-03  1.5286e-03  7.0397e-04  0:00:23  106
  1895  1.7923e-03  6.2834e-03  1.8865e-02  2.2227e+00  1.7892e-03  1.5281e-03  7.0424e-04  0:00:18  105
  1896  1.8083e-03  6.2484e-03  1.8776e-02  2.1459e+00  1.8052e-03  1.5273e-03  7.0396e-04  0:00:35  104
  1897  1.8249e-03  6.2142e-03  1.8687e-02  2.1155e+00  1.8216e-03  1.5269e-03  7.0496e-04  0:00:28  103
  1898  1.8428e-03  6.1807e-03  1.8598e-02  2.0814e+00  1.8394e-03  1.5260e-03  7.0387e-04  0:00:22  102
  1899  1.8607e-03  6.1479e-03  1.8509e-02  1.9783e+00  1.8572e-03  1.5250e-03  7.0334e-04  0:00:18  101
  1900  1.8782e-03  6.1158e-03  1.8419e-02  1.8792e+00  1.8747e-03  1.5245e-03  7.0356e-04  0:00:34  100
  1901  1.8949e-03  6.0844e-03  1.8330e-02  1.8142e+00  1.8912e-03  1.5241e-03  7.0352e-04  0:00:27   99
  1902  1.9112e-03  6.0537e-03  1.8240e-02  1.7359e+00  1.9074e-03  1.5235e-03  7.0382e-04  0:00:21   98
  1903  1.9273e-03  6.0237e-03  1.8150e-02  1.6861e+00  1.9234e-03  1.5227e-03  7.0402e-04  0:00:17   97

  iter  continuity  x-velocity  y-velocity  z-velocity      energy           k       omega     time/iter
  1904  1.9432e-03  5.9946e-03  1.8061e-02  1.6388e+00  1.9393e-03  1.5227e-03  7.0549e-04  0:00:33   96
  1905  1.9586e-03  5.9661e-03  1.7971e-02  1.5998e+00  1.9545e-03  1.5226e-03  7.0531e-04  0:00:26   95
  1906  1.9738e-03  5.9383e-03  1.7881e-02  1.5764e+00  1.9696e-03  1.5226e-03  7.0564e-04  0:00:20   94
  1907  1.9889e-03  5.9111e-03  1.7791e-02  1.5327e+00  1.9846e-03  1.5226e-03  7.0723e-04  0:00:16   93
  1908  2.0030e-03  5.8846e-03  1.7701e-02  1.4645e+00  1.9987e-03  1.5227e-03  7.0739e-04  0:00:31   92
  1909  2.0170e-03  5.8588e-03  1.7611e-02  1.4118e+00  2.0125e-03  1.5237e-03  7.0789e-04  0:00:25   91
  1910  2.0304e-03  5.8335e-03  1.7521e-02  1.3743e+00  2.0258e-03  1.5250e-03  7.0850e-04  0:00:20   90
  1911  2.0435e-03  5.8086e-03  1.7432e-02  1.3659e+00  2.0389e-03  1.5262e-03  7.1062e-04  0:00:15   89
  1912  2.0549e-03  5.7842e-03  1.7342e-02  1.3762e+00  2.0502e-03  1.5271e-03  7.1167e-04  0:00:30   88
  1913  2.0654e-03  5.7601e-03  1.7253e-02  1.4034e+00  2.0606e-03  1.5285e-03  7.1144e-04  0:00:24   87
  1914  2.0759e-03  5.7362e-03  1.7165e-02  1.4182e+00  2.0710e-03  1.5302e-03  7.1106e-04  0:00:19   86

  iter  continuity  x-velocity  y-velocity  z-velocity      energy           k       omega     time/iter
  1915  2.0860e-03  5.7127e-03  1.7077e-02  1.4442e+00  2.0811e-03  1.5322e-03  7.1232e-04  0:00:15   85
  1916  2.0948e-03  5.6893e-03  1.6990e-02  1.4795e+00  2.0898e-03  1.5341e-03  7.1241e-04  0:00:28   84
  1917  2.1027e-03  5.6661e-03  1.6904e-02  1.5509e+00  2.0976e-03  1.5357e-03  7.1208e-04  0:00:22   83
  1918  2.1097e-03  5.6432e-03  1.6818e-02  1.6262e+00  2.1045e-03  1.5371e-03  7.1316e-04  0:00:18   82
  1919  2.1161e-03  5.6205e-03  1.6733e-02  1.6995e+00  2.1109e-03  1.5386e-03  7.1488e-04  0:00:14   81
  1920  2.1214e-03  5.5978e-03  1.6649e-02  1.7613e+00  2.1161e-03  1.5397e-03  7.1531e-04  0:00:27   80
  1921  2.1261e-03  5.5754e-03  1.6566e-02  1.8190e+00  2.1208e-03  1.5406e-03  7.1578e-04  0:00:21   79
  1922  2.1302e-03  5.5532e-03  1.6485e-02  1.8431e+00  2.1248e-03  1.5415e-03  7.1604e-04  0:00:17   78
  1923  2.1336e-03  5.5312e-03  1.6404e-02  1.8283e+00  2.1282e-03  1.5426e-03  7.1620e-04  0:00:13   77
  1924  2.1368e-03  5.5095e-03  1.6325e-02  1.8044e+00  2.1313e-03  1.5439e-03  7.1672e-04  0:00:26   76
  1925  2.1387e-03  5.4880e-03  1.6248e-02  1.7895e+00  2.1331e-03  1.5451e-03  7.1584e-04  0:00:20   75

  iter  continuity  x-velocity  y-velocity  z-velocity      energy           k       omega     time/iter
  1926  2.1401e-03  5.4669e-03  1.6171e-02  1.7819e+00  2.1344e-03  1.5461e-03  7.1536e-04  0:00:16   74
  1927  2.1409e-03  5.4462e-03  1.6096e-02  1.7887e+00  2.1352e-03  1.5468e-03  7.1600e-04  0:00:27   73
  1928  2.1408e-03  5.4258e-03  1.6022e-02  1.8084e+00  2.1351e-03  1.5472e-03  7.1444e-04  0:00:22   72
  1929  2.1399e-03  5.4058e-03  1.5950e-02  1.8459e+00  2.1341e-03  1.5473e-03  7.1304e-04  0:00:17   71
  1930  2.1382e-03  5.3860e-03  1.5879e-02  1.8884e+00  2.1323e-03  1.5473e-03  7.1155e-04  0:00:13   70
  1931  2.1354e-03  5.3664e-03  1.5810e-02  1.9242e+00  2.1295e-03  1.5470e-03  7.1047e-04  0:00:24   69
  1932  2.1318e-03  5.3472e-03  1.5741e-02  1.9619e+00  2.1258e-03  1.5467e-03  7.1029e-04  0:00:19   68
  1933  2.1273e-03  5.3281e-03  1.5675e-02  2.0105e+00  2.1213e-03  1.5464e-03  7.1001e-04  0:00:15   67
  1934  2.1221e-03  5.3093e-03  1.5610e-02  2.0592e+00  2.1160e-03  1.5457e-03  7.0954e-04  0:00:12   66
  1935  2.1160e-03  5.2906e-03  1.5545e-02  2.1114e+00  2.1098e-03  1.5453e-03  7.0777e-04  0:00:22   65
  1936  2.1091e-03  5.2722e-03  1.5483e-02  2.1635e+00  2.1029e-03  1.5454e-03  7.0669e-04  0:00:18   64

  iter  continuity  x-velocity  y-velocity  z-velocity      energy           k       omega     time/iter
  1937  2.1012e-03  5.2539e-03  1.5421e-02  2.1984e+00  2.0950e-03  1.5459e-03  7.0552e-04  0:00:14   63
  1938  2.0928e-03  5.2357e-03  1.5361e-02  2.2316e+00  2.0865e-03  1.5466e-03  7.0747e-04  0:00:11   62
  1939  2.0832e-03  5.2176e-03  1.5302e-02  2.2675e+00  2.0769e-03  1.5465e-03  7.0581e-04  0:00:21   61
  1940  2.0730e-03  5.1995e-03  1.5245e-02  2.3136e+00  2.0666e-03  1.5462e-03  7.0316e-04  0:00:16   60
  1941  2.0619e-03  5.1814e-03  1.5190e-02  2.3796e+00  2.0555e-03  1.5457e-03  7.0017e-04  0:00:13   59
  1942  2.0500e-03  5.1634e-03  1.5136e-02  2.4573e+00  2.0435e-03  1.5448e-03  6.9884e-04  0:00:10   58
  1943  2.0373e-03  5.1454e-03  1.5083e-02  2.5531e+00  2.0308e-03  1.5438e-03  6.9690e-04  0:00:19   57
  1944  2.0240e-03  5.1272e-03  1.5032e-02  2.6562e+00  2.0175e-03  1.5428e-03  6.9485e-04  0:00:15   56
  1945  2.0101e-03  5.1091e-03  1.4981e-02  2.7527e+00  2.0035e-03  1.5415e-03  6.9290e-04  0:00:12   55
  1946  1.9955e-03  5.0908e-03  1.4933e-02  2.8452e+00  1.9889e-03  1.5400e-03  6.9087e-04  0:00:09   54
  1947  1.9804e-03  5.0723e-03  1.4885e-02  2.9279e+00  1.9738e-03  1.5384e-03  6.8953e-04  0:00:18   53

  iter  continuity  x-velocity  y-velocity  z-velocity      energy           k       omega     time/iter
  1948  1.9648e-03  5.0538e-03  1.4838e-02  2.9922e+00  1.9582e-03  1.5370e-03  6.8822e-04  0:00:14   52
  1949  1.9483e-03  5.0351e-03  1.4792e-02  3.0362e+00  1.9416e-03  1.5359e-03  6.8728e-04  0:00:11   51
  1950  1.9313e-03  5.0165e-03  1.4747e-02  3.0685e+00  1.9246e-03  1.5347e-03  6.8529e-04  0:00:09   50
  1951  1.9139e-03  4.9979e-03  1.4703e-02  3.0934e+00  1.9071e-03  1.5321e-03  6.8287e-04  0:00:17   49
  1952  1.8959e-03  4.9793e-03  1.4659e-02  3.1163e+00  1.8891e-03  1.5290e-03  6.8088e-04  0:00:13   48
  1953  1.8772e-03  4.9608e-03  1.4616e-02  3.1317e+00  1.8704e-03  1.5256e-03  6.7921e-04  0:00:10   47
  1954  1.8581e-03  4.9424e-03  1.4573e-02  3.1343e+00  1.8513e-03  1.5229e-03  6.7764e-04  0:00:08   46
  1955  1.8385e-03  4.9239e-03  1.4530e-02  3.1215e+00  1.8316e-03  1.5202e-03  6.7610e-04  0:00:15   45
  1956  1.8185e-03  4.9055e-03  1.4488e-02  3.0914e+00  1.8116e-03  1.5175e-03  6.7486e-04  0:00:12   44
  1957  1.7981e-03  4.8871e-03  1.4445e-02  3.0403e+00  1.7912e-03  1.5149e-03  6.7432e-04  0:00:09   43
  1958  1.7775e-03  4.8688e-03  1.4402e-02  2.9780e+00  1.7706e-03  1.5121e-03  6.7409e-04  0:00:07   42

  iter  continuity  x-velocity  y-velocity  z-velocity      energy           k       omega     time/iter
  1959  1.7566e-03  4.8505e-03  1.4359e-02  2.9092e+00  1.7496e-03  1.5093e-03  6.7384e-04  0:00:14   41
  1960  1.7356e-03  4.8321e-03  1.4315e-02  2.8313e+00  1.7286e-03  1.5066e-03  6.7220e-04  0:00:11   40
  1961  1.7146e-03  4.8138e-03  1.4270e-02  2.7557e+00  1.7076e-03  1.5038e-03  6.7107e-04  0:00:08   39
  1962  1.6938e-03  4.7954e-03  1.4226e-02  2.6768e+00  1.6868e-03  1.5004e-03  6.6927e-04  0:00:07   38
  1963  1.6732e-03  4.7769e-03  1.4181e-02  2.5980e+00  1.6662e-03  1.4970e-03  6.6833e-04  0:00:13   37
  1964  1.6528e-03  4.7584e-03  1.4135e-02  2.5219e+00  1.6458e-03  1.4931e-03  6.6746e-04  0:00:10   36
  1965  1.6326e-03  4.7398e-03  1.4089e-02  2.4774e+00  1.6256e-03  1.4892e-03  6.6615e-04  0:00:08   35
  1966  1.6128e-03  4.7212e-03  1.4041e-02  2.4470e+00  1.6059e-03  1.4853e-03  6.6545e-04  0:00:06   34
  1967  1.5935e-03  4.7027e-03  1.3993e-02  2.3871e+00  1.5866e-03  1.4815e-03  6.6472e-04  0:00:11   33
  1968  1.5747e-03  4.6841e-03  1.3945e-02  2.3101e+00  1.5678e-03  1.4773e-03  6.6424e-04  0:00:09   32
  1969  1.5564e-03  4.6657e-03  1.3895e-02  2.2245e+00  1.5495e-03  1.4729e-03  6.6345e-04  0:00:07   31

  iter  continuity  x-velocity  y-velocity  z-velocity      energy           k       omega     time/iter
  1970  1.5387e-03  4.6474e-03  1.3845e-02  2.1396e+00  1.5318e-03  1.4687e-03  6.6257e-04  0:00:05   30
  1971  1.5216e-03  4.6293e-03  1.3794e-02  2.0559e+00  1.5147e-03  1.4651e-03  6.6246e-04  0:00:10   29
  1972  1.5051e-03  4.6113e-03  1.3742e-02  1.9686e+00  1.4982e-03  1.4614e-03  6.6252e-04  0:00:08   28
  1973  1.4894e-03  4.5935e-03  1.3690e-02  1.8937e+00  1.4825e-03  1.4580e-03  6.6270e-04  0:00:06   27
  1974  1.4745e-03  4.5759e-03  1.3637e-02  1.8302e+00  1.4675e-03  1.4544e-03  6.6177e-04  0:00:05   26
  1975  1.4603e-03  4.5586e-03  1.3583e-02  1.7698e+00  1.4533e-03  1.4512e-03  6.6100e-04  0:00:08   25
  1976  1.4468e-03  4.5415e-03  1.3529e-02  1.6994e+00  1.4398e-03  1.4489e-03  6.6039e-04  0:00:07   24
  1977  1.4338e-03  4.5246e-03  1.3474e-02  1.6328e+00  1.4267e-03  1.4470e-03  6.5944e-04  0:00:05   23
  1978  1.4215e-03  4.5077e-03  1.3418e-02  1.5703e+00  1.4144e-03  1.4442e-03  6.5932e-04  0:00:04   22
  1979  1.4099e-03  4.4911e-03  1.3362e-02  1.5071e+00  1.4028e-03  1.4412e-03  6.5899e-04  0:00:07   21
  1980  1.3990e-03  4.4749e-03  1.3307e-02  1.4439e+00  1.3919e-03  1.4378e-03  6.5896e-04  0:00:05   20

  iter  continuity  x-velocity  y-velocity  z-velocity      energy           k       omega     time/iter
  1981  1.3886e-03  4.4589e-03  1.3251e-02  1.3788e+00  1.3814e-03  1.4347e-03  6.5940e-04  0:00:04   19
  1982  1.3789e-03  4.4429e-03  1.3195e-02  1.3117e+00  1.3717e-03  1.4318e-03  6.6026e-04  0:00:03   18
  1983  1.3696e-03  4.4269e-03  1.3139e-02  1.2462e+00  1.3623e-03  1.4287e-03  6.6046e-04  0:00:06   17
  1984  1.3607e-03  4.4108e-03  1.3084e-02  1.1878e+00  1.3534e-03  1.4254e-03  6.6026e-04  0:00:04   16
  1985  1.3527e-03  4.3947e-03  1.3028e-02  1.1340e+00  1.3454e-03  1.4220e-03  6.5847e-04  0:00:03   15
  1986  1.3453e-03  4.3786e-03  1.2973e-02  1.0886e+00  1.3380e-03  1.4188e-03  6.5682e-04  0:00:05   14
  1987  1.3387e-03  4.3625e-03  1.2919e-02  1.0508e+00  1.3313e-03  1.4159e-03  6.5491e-04  0:00:04   13
  1988  1.3330e-03  4.3464e-03  1.2865e-02  1.0260e+00  1.3256e-03  1.4130e-03  6.5365e-04  0:00:03   12
  1989  1.3281e-03  4.3304e-03  1.2813e-02  1.0186e+00  1.3207e-03  1.4099e-03  6.5171e-04  0:00:02   11
  1990  1.3240e-03  4.3144e-03  1.2760e-02  1.0253e+00  1.3165e-03  1.4067e-03  6.4997e-04  0:00:04   10
  1991  1.3205e-03  4.2984e-03  1.2708e-02  1.0447e+00  1.3130e-03  1.4034e-03  6.4893e-04  0:00:03    9

  iter  continuity  x-velocity  y-velocity  z-velocity      energy           k       omega     time/iter
  1992  1.3179e-03  4.2825e-03  1.2657e-02  1.0218e+00  1.3104e-03  1.4000e-03  6.4799e-04  0:00:02    8
  1993  1.3159e-03  4.2666e-03  1.2607e-02  9.9686e-01  1.3084e-03  1.3972e-03  6.4813e-04  0:00:03    7
  1994  1.3144e-03  4.2508e-03  1.2558e-02  9.9024e-01  1.3068e-03  1.3947e-03  6.4819e-04  0:00:02    6
  1995  1.3135e-03  4.2351e-03  1.2509e-02  1.0228e+00  1.3059e-03  1.3921e-03  6.4710e-04  0:00:01    5
  1996  1.3132e-03  4.2197e-03  1.2461e-02  1.0394e+00  1.3055e-03  1.3880e-03  6.4586e-04  0:00:01    4
  1997  1.3134e-03  4.2046e-03  1.2414e-02  1.0673e+00  1.3056e-03  1.3830e-03  6.4425e-04  0:00:01    3
  1998  1.3139e-03  4.1895e-03  1.2368e-02  1.1180e+00  1.3061e-03  1.3774e-03  6.4280e-04  0:00:01    2
  1999  1.3148e-03  4.1744e-03  1.2322e-02  1.1630e+00  1.3069e-03  1.3714e-03  6.4183e-04  0:00:00    1
  2000  1.3161e-03  4.1594e-03  1.2277e-02  1.1823e+00  1.3082e-03  1.3653e-03  6.4056e-04  0:00:00    0

> 
adjoint/                parallel/               server/
define/                 parametric-study/       solve/
display/                plot/                   surface/
exit                    preferences/            turbo-workflow/
file/                   print-license-usage     views/
mesh/                   report/

> /file/write-case-data project1
Fast-loading "C:\PROGRA~1\ANSYSI~1\v231\fluent\fluent23.1.0\\addons\afd\lib\hdfio.bin"
Done.

Writing to Engs-30669:"C:\Users\kebl7595\Desktop\CFD\Runs\Flap\Re 3e5\large AR of 1\project1.cas.h5" in NODE0 mode and compression level 1 ...
       30372 cells,     1 zone  ...
      102044 faces,     7 zones ...
       41568 nodes,     1 zone  ...
  Done.
Done.

Writing to Engs-30669:"C:\Users\kebl7595\Desktop\CFD\Runs\Flap\Re 3e5\large AR of 1\project1.dat.h5" in NODE0 mode and compression level 1 ...
  Writing results.
Done.

> /file/export/ascii "./surface.dat" wing () no pressure mach-number quit no

Writing "./surface.dat"...

Writing information to ascii file ...
Done.


> /report/forces/wall-forces y -0.342020 -0.939693 0 y "Lift"

> /report/forces/wall-forces y 0.939693 -0.342020 0 y "Drag"

> /exit

Posting ANSYS Product Improvement Program performance data 
Done.
Auto-Transcript Stop Time:  12:29:22, 22 May 2024 GMT Daylight Time 
Total Transcript Time: 9 Minute 23 Second.
