Auto-Transcript Start Time:  15:13:56, 20 May 2024 GMT Daylight Time 
Current Directory: "C:\Users\kebl7595\Desktop\CFD\Runs\Actual Data\30 degree"

              Welcome to ANSYS Fluent 2023 R1

              Copyright 1987-2023 ANSYS, Inc. All Rights Reserved.
              Unauthorized use, distribution or duplication is prohibited.
              This product is subject to U.S. laws governing export and re-export.
              For full Legal Notice, see documentation.

Build Time: Nov 28 2022 09:52:02 EST  Build Id: 10208  
 
Connected License Server List:	1055@ansyslic.eng.ox.ac.uk

*********************************************
Info: Your license enables 4-way parallel execution.
For faster simulations, please start the application with the appropriate parallel options.
*********************************************


     --------------------------------------------------------------
     This is an academic version of ANSYS FLUENT. Usage of this product
     license is limited to the terms and conditions specified in your ANSYS
     license form, additional terms section.
     --------------------------------------------------------------
Host spawning Node 0 on machine "Engs-30669" (win64).

------------------------------------------------------------------------------------
ID    Hostname    Core  O.S.         PID    Vendor                                 
------------------------------------------------------------------------------------
n0    Engs-30669  1/32  Windows-x64  46992  13th Gen Intel(R) Core(TM) i9-13900    
host  Engs-30669        Windows-x64  45716  13th Gen Intel(R) Core(TM) i9-13900    

MPI Option Selected: intel
------------------------------------------------------------------------------------

Cleanup script file is C:\\Users\\kebl7595\\Desktop\\CFD\\Runs\\Actual Data\\30 degree\\cleanup-fluent-Engs-30669-45716.bat
QA Service Message :
QA Services Agreement Enabled. This application is included in the scope of an ANSYS QA Services Agreement.
Posting ANSYS Product Improvement Program startup data
Done.

Reading journal file C:/Users/kebl7595/Desktop/CFD/Runs/Actual Data/30 degree/project1.jou...

> /file/set-batch-options no no no 

> 
define/                 parametric-study/       solve/
display/                plot/                   surface/
exit                    preferences/            switch-to-meshing-mode
file/                   print-license-usage     turbo-workflow/
mesh/                   report/                 views/
parallel/               server/

> /file/import/cgns/mesh  "./project1.cgns"
Engs-30669 has other FLUENT parallel processes running.                       Process affinity not being set.

Importing "./project1.cgns"

Opening library "C:\\PROGRA~1\\ANSYSI~1\\v231\\fluent\\fluent23.1.0\\vki\\win64\\devtools4.4.6.dll"... done.

Read    17864 nodes
   12996 hexahedral cells, zone  1
    9462 quadrilateral wall faces, zone  2.
   33972 quadrilateral interior faces, zone  3.
     282 quadrilateral interface faces, zone  4.
       6 quadrilateral wall faces, zone  5.

Building...
     mesh
     materials,
     interface,
     domains,
     zones,
	default_exterior-1
	interface-default_subface
	default_interior-1
	default_subface
	default
     parallel,
The automatic selection for flux type has changed to Rhie-Chow: momentum based.

Done.


> 
adjoint/                parallel/               server/
define/                 parametric-study/       solve/
display/                plot/                   surface/
exit                    preferences/            turbo-workflow/
file/                   print-license-usage     views/
mesh/                   report/

> /define/models/solver/density-based-implicit yes

> 
adjoint/                parallel/               server/
define/                 parametric-study/       solve/
display/                plot/                   surface/
exit                    preferences/            turbo-workflow/
file/                   print-license-usage     views/
mesh/                   report/

> /define/models/energy? yes yes invalid command [yes]
yes

> /define/models/viscous/inviscid yes

> 
adjoint/                parallel/               server/
define/                 parametric-study/       solve/
display/                plot/                   surface/
exit                    preferences/            turbo-workflow/
file/                   print-license-usage     views/
mesh/                   report/

> /define/materials/change-create air air air is a fluid
yes 
Density
ideal-gas no data required.

no no no no 

> 
adjoint/                parallel/               server/
define/                 parametric-study/       solve/
display/                plot/                   surface/
exit                    preferences/            turbo-workflow/
file/                   print-license-usage     views/
mesh/                   report/

> /mesh/modify-zones/sep-face-zone-angle 2 90 yes

 4332 faces in contiguous region 0
 228 faces in contiguous region 1
 342 faces in contiguous region 2
 4332 faces in contiguous region 3
 228 faces in contiguous region 4
 Separates zone 2 into 5 zone(s).
Updating new zone information...
   created new zone default_subface:010 from default_subface
   created new zone default_subface:009 from default_subface
   created new zone default_subface:008 from default_subface
   created new zone default_subface:007 from default_subface
done.

> 
adjoint/                parallel/               server/
define/                 parametric-study/       solve/
display/                plot/                   surface/
exit                    preferences/            turbo-workflow/
file/                   print-license-usage     views/
mesh/                   report/

> /define/boundary-conditions/zone-name  5   te

> /define/boundary-conditions/zone-name  7 wing

> /define/boundary-conditions/zone-name  2 sym1

> /define/boundary-conditions/zone-name  9 sym2

> 
adjoint/                parallel/               server/
define/                 parametric-study/       solve/
display/                plot/                   surface/
exit                    preferences/            turbo-workflow/
file/                   print-license-usage     views/
mesh/                   report/

> /define/boundary-conditions/zone-name  8 far1

> /define/boundary-conditions/zone-name 10 far2

> 
adjoint/                parallel/               server/
define/                 parametric-study/       solve/
display/                plot/                   surface/
exit                    preferences/            turbo-workflow/
file/                   print-license-usage     views/
mesh/                   report/

> /define/boundary-conditions/zone-type  8 pressure-far-field

> /define/boundary-conditions/zone-type 10 pressure-far-field

> /define/boundary-conditions/zone-type  2 symmetry

> /define/boundary-conditions/zone-type  9 symmetry

> 
adjoint/                parallel/               server/
define/                 parametric-study/       solve/
display/                plot/                   surface/
exit                    preferences/            turbo-workflow/
file/                   print-license-usage     views/
mesh/                   report/

> /define/boundary-conditions/pressure-far-field (far2 far1)
far1 no 0 no 0.1 no 300 yes no 0.86603 no 0.5 no 0

> /define/boundary-conditions/pressure-far-field (far2 far1)
far2 no 0 no 0.1 no 300 yes no 0.86603 no 0.5 no 0

> 
adjoint/                parallel/               server/
define/                 parametric-study/       solve/
display/                plot/                   surface/
exit                    preferences/            turbo-workflow/
file/                   print-license-usage     views/
mesh/                   report/

> /solve/initialize/compute-defaults/pressure-far-field (far2 far1)
far1

> /solve/initialize/initialize-flow

> 
adjoint/                parallel/               server/
define/                 parametric-study/       solve/
display/                plot/                   surface/
exit                    preferences/            turbo-workflow/
file/                   print-license-usage     views/
mesh/                   report/

> /solve/monitors/residual/convergence-criteria 1.e-9 1.e-9 1.e-9 1.e-9 1.e-9

> /solve/iterate 2000

  iter  continuity  x-velocity  y-velocity  z-velocity      energy     time/iter
     1  1.0000e+00  1.0000e+00  1.0000e+00  0.0000e+00  1.0000e+00  0:00:00 1999
     2  5.1311e-01  4.6737e-01  4.3807e-01  1.0000e+00  5.1362e-01  0:00:00 1998
     3  2.5375e-01  2.2502e-01  2.2963e-01  7.3952e-01  2.5395e-01  0:00:00 1997
     4  1.5232e-01  1.4366e-01  1.2664e-01  5.2114e-01  1.5238e-01  0:33:16 1996
     5  1.1413e-01  1.0129e-01  7.7134e-02  4.9760e-01  1.1420e-01  0:26:36 1995
     6  9.3147e-02  7.1926e-02  5.3617e-02  6.0546e-01  9.3237e-02  0:21:16 1994
     7  8.0192e-02  5.3469e-02  4.0804e-02  6.9734e-01  8.0288e-02  0:17:00 1993
     8  7.2201e-02  4.2582e-02  3.2497e-02  7.4295e-01  7.2287e-02  0:13:36 1992
     9  6.7020e-02  3.5955e-02  2.6931e-02  7.6800e-01  6.7087e-02  0:10:52 1991
    10  6.4097e-02  3.2118e-02  2.3197e-02  7.6188e-01  6.4142e-02  0:08:42 1990
    11  6.2782e-02  3.0264e-02  2.0628e-02  7.6419e-01  6.2804e-02  0:06:57 1989

  iter  continuity  x-velocity  y-velocity  z-velocity      energy     time/iter
    12  6.2577e-02  2.9778e-02  1.8914e-02  7.7413e-01  6.2579e-02  0:05:34 1988
    13  6.3093e-02  3.0081e-02  1.7746e-02  7.8731e-01  6.3075e-02  0:04:27 1987
    14  6.4192e-02  3.0946e-02  1.7077e-02  8.0642e-01  6.4156e-02  0:03:33 1986
    15  6.5677e-02  3.2111e-02  1.6708e-02  8.2884e-01  6.5623e-02  0:09:28 1985
    16  6.7402e-02  3.3459e-02  1.6542e-02  8.4806e-01  6.7328e-02  0:07:34 1984
    17  6.9239e-02  3.4966e-02  1.6662e-02  8.6555e-01  6.9144e-02  0:06:03 1983
    18  7.1019e-02  3.6492e-02  1.6926e-02  8.8799e-01  7.0901e-02  0:04:50 1982
    19  7.2734e-02  3.7963e-02  1.7283e-02  9.1852e-01  7.2590e-02  0:03:52 1981
    20  7.4155e-02  3.9343e-02  1.7773e-02  9.5684e-01  7.3981e-02  0:03:05 1980
    21  7.5212e-02  4.0491e-02  1.8209e-02  1.0022e+00  7.5004e-02  0:02:28 1979
    22  7.5924e-02  4.1327e-02  1.8739e-02  1.0525e+00  7.5679e-02  0:01:59 1978

  iter  continuity  x-velocity  y-velocity  z-velocity      energy     time/iter
    23  7.6202e-02  4.1948e-02  1.9192e-02  1.1037e+00  7.5917e-02  0:01:35 1977
    24  7.5957e-02  4.2468e-02  1.9561e-02  1.1537e+00  7.5630e-02  0:01:16 1976
    25  7.5256e-02  4.2610e-02  1.9871e-02  1.1982e+00  7.4884e-02  0:01:01 1975
    26  7.4207e-02  4.2507e-02  2.0134e-02  1.2345e+00  7.3790e-02  0:00:48 1974
    27  7.2688e-02  4.2317e-02  2.0391e-02  1.2589e+00  7.2224e-02  0:00:39 1973
    28  7.0794e-02  4.1981e-02  2.0503e-02  1.2707e+00  7.0285e-02  0:00:31 1972
    29  6.8603e-02  4.1395e-02  2.0722e-02  1.2680e+00  6.8050e-02  0:06:59 1971
    30  6.6176e-02  4.0646e-02  2.1108e-02  1.2527e+00  6.5581e-02  0:05:35 1970
    31  6.3516e-02  3.9827e-02  2.1685e-02  1.2286e+00  6.2881e-02  0:04:28 1969
    32  6.0718e-02  3.8995e-02  2.2484e-02  1.1993e+00  6.0046e-02  0:03:34 1968
    33  5.7830e-02  3.8087e-02  2.3465e-02  1.1711e+00  5.7126e-02  0:02:51 1967

  iter  continuity  x-velocity  y-velocity  z-velocity      energy     time/iter
    34  5.4901e-02  3.7089e-02  2.4852e-02  1.1522e+00  5.4168e-02  0:02:17 1966
    35  5.1918e-02  3.6079e-02  2.6479e-02  1.1450e+00  5.1160e-02  0:01:49 1965
    36  4.8911e-02  3.5134e-02  2.8304e-02  1.1517e+00  4.8131e-02  0:01:28 1964
    37  4.5921e-02  3.4302e-02  3.0313e-02  1.1705e+00  4.5123e-02  0:01:10 1963
    38  4.2973e-02  3.3583e-02  3.2419e-02  1.1947e+00  4.2161e-02  0:00:56 1962
    39  4.0071e-02  3.2843e-02  3.4654e-02  1.2216e+00  3.9249e-02  0:00:45 1961
    40  3.7262e-02  3.2403e-02  3.6992e-02  1.2470e+00  3.6432e-02  0:00:36 1960
    41  3.4528e-02  3.2234e-02  3.9403e-02  1.2702e+00  3.3693e-02  0:00:29 1959
    42  3.1879e-02  3.2426e-02  4.1854e-02  1.2775e+00  3.1043e-02  0:06:54 1958
    43  2.9344e-02  3.2938e-02  4.4359e-02  1.2728e+00  2.8512e-02  0:05:31 1957
    44  2.6956e-02  3.3790e-02  4.6900e-02  1.2541e+00  2.6131e-02  0:04:25 1956

  iter  continuity  x-velocity  y-velocity  z-velocity      energy     time/iter
    45  2.4750e-02  3.4920e-02  4.9479e-02  1.2239e+00  2.3940e-02  0:03:32 1955
    46  2.2765e-02  3.6323e-02  5.2080e-02  1.1848e+00  2.1978e-02  0:02:49 1954
    47  2.1033e-02  3.7921e-02  5.4669e-02  1.1384e+00  2.0280e-02  0:02:15 1953
    48  1.9611e-02  3.9680e-02  5.7232e-02  1.0886e+00  1.8905e-02  0:01:48 1952
    49  1.8554e-02  4.1626e-02  5.9746e-02  1.0400e+00  1.7911e-02  0:01:27 1951
    50  1.7911e-02  4.3684e-02  6.2180e-02  9.9385e-01  1.7345e-02  0:01:09 1950
    51  1.7751e-02  4.5834e-02  6.4502e-02  9.5330e-01  1.7273e-02  0:00:55 1949
    52  1.8123e-02  4.8060e-02  6.6684e-02  9.2261e-01  1.7736e-02  0:00:44 1948
    53  1.9031e-02  5.0355e-02  6.8701e-02  9.0334e-01  1.8732e-02  0:00:35 1947
    54  2.0433e-02  5.2741e-02  7.0527e-02  8.9682e-01  2.0209e-02  0:00:28 1946
    55  2.2282e-02  5.5223e-02  7.2149e-02  9.0038e-01  2.2118e-02  0:00:23 1945

  iter  continuity  x-velocity  y-velocity  z-velocity      energy     time/iter
    56  2.4567e-02  5.7807e-02  7.3557e-02  9.1053e-01  2.4447e-02  0:06:47 1944
    57  2.7228e-02  6.0511e-02  7.4737e-02  9.2444e-01  2.7138e-02  0:05:25 1943
    58  3.0195e-02  6.3319e-02  7.5707e-02  9.3809e-01  3.0125e-02  0:04:20 1942
    59  3.3440e-02  6.6232e-02  7.6447e-02  9.5551e-01  3.3381e-02  0:03:28 1941
    60  3.6960e-02  6.9131e-02  7.6957e-02  9.7113e-01  3.6906e-02  0:02:46 1940
    61  4.0746e-02  7.1947e-02  7.7223e-02  1.0016e+00  4.0694e-02  0:02:13 1939
    62  4.4662e-02  7.4475e-02  7.7235e-02  1.0362e+00  4.4608e-02  0:01:46 1938
    63  4.8636e-02  7.6579e-02  7.6959e-02  1.0707e+00  4.8578e-02  0:01:25 1937
    64  5.1650e-02  7.8169e-02  7.6359e-02  1.1041e+00  5.1590e-02  0:01:08 1936
    65  5.3674e-02  7.9064e-02  7.5256e-02  1.1320e+00  5.3609e-02  0:00:54 1935
    66  5.5031e-02  7.9248e-02  7.3844e-02  1.1652e+00  5.4961e-02  0:00:43 1934

  iter  continuity  x-velocity  y-velocity  z-velocity      energy     time/iter
    67  5.5860e-02  7.9479e-02  7.2177e-02  1.2008e+00  5.5778e-02  0:00:35 1933
    68  5.6084e-02  7.9879e-02  7.0243e-02  1.2239e+00  5.5985e-02  0:00:28 1932
    69  5.5696e-02  8.0381e-02  6.8068e-02  1.2480e+00  5.5569e-02  0:00:22 1931
    70  5.4629e-02  8.0900e-02  6.5751e-02  1.2296e+00  5.4458e-02  0:06:44 1930
    71  5.2992e-02  8.1462e-02  6.3436e-02  1.2237e+00  5.2762e-02  0:05:23 1929
    72  5.0991e-02  8.1901e-02  6.1346e-02  1.2277e+00  5.0687e-02  0:04:18 1928
    73  4.8929e-02  8.2177e-02  5.9584e-02  1.2377e+00  4.8540e-02  0:03:26 1927
    74  4.6938e-02  8.2027e-02  5.8419e-02  1.2141e+00  4.6455e-02  0:02:45 1926
    75  4.5062e-02  8.1662e-02  5.7924e-02  1.1886e+00  4.4487e-02  0:02:12 1925
    76  4.3304e-02  8.0974e-02  5.8299e-02  1.1867e+00  4.2644e-02  0:01:46 1924
    77  4.1652e-02  8.0361e-02  5.9530e-02  1.1782e+00  4.0922e-02  0:01:24 1923

  iter  continuity  x-velocity  y-velocity  z-velocity      energy     time/iter
    78  4.0179e-02  7.9274e-02  6.1707e-02  1.1664e+00  3.9400e-02  0:01:07 1922
    79  3.8889e-02  7.7500e-02  6.4753e-02  1.1791e+00  3.8087e-02  0:00:54 1921
    80  3.7723e-02  7.5800e-02  6.8174e-02  1.1885e+00  3.6925e-02  0:00:43 1920
    81  3.6613e-02  7.3929e-02  7.1881e-02  1.2042e+00  3.5842e-02  0:00:34 1919
    82  3.5511e-02  7.2028e-02  7.5638e-02  1.2327e+00  3.4785e-02  0:00:28 1918
    83  3.4479e-02  6.9707e-02  7.9240e-02  1.2584e+00  3.3815e-02  0:00:22 1917
    84  3.3200e-02  6.7816e-02  8.2380e-02  1.2800e+00  3.2602e-02  0:06:41 1916
    85  3.1811e-02  6.5875e-02  8.5147e-02  1.2941e+00  3.1286e-02  0:05:20 1915
    86  3.0414e-02  6.3959e-02  8.7406e-02  1.3023e+00  2.9964e-02  0:04:16 1914
    87  2.9327e-02  6.1889e-02  8.8962e-02  1.2928e+00  2.8957e-02  0:03:25 1913
    88  2.8508e-02  6.0778e-02  8.9858e-02  1.4613e+00  2.8217e-02  0:02:44 1912

  iter  continuity  x-velocity  y-velocity  z-velocity      energy     time/iter
    89  2.7945e-02  6.0160e-02  9.0230e-02  1.7972e+00  2.7729e-02  0:02:11 1911
    90  2.7833e-02  6.0566e-02  8.9915e-02  2.1679e+00  2.7689e-02  0:01:45 1910
    91  2.8175e-02  6.0948e-02  8.9233e-02  1.9143e+00  2.8094e-02  0:01:24 1909
    92  2.8912e-02  6.2271e-02  8.7995e-02  1.5637e+00  2.8883e-02  0:01:07 1908
    93  2.9794e-02  6.4020e-02  8.6502e-02  1.3258e+00  2.9808e-02  0:00:54 1907
    94  3.1054e-02  6.6505e-02  8.4695e-02  1.1731e+00  3.1099e-02  0:00:43 1906
    95  3.2267e-02  6.9597e-02  8.2498e-02  1.0975e+00  3.2334e-02  0:00:34 1905
    96  3.3604e-02  7.2427e-02  8.0212e-02  1.0472e+00  3.3683e-02  0:00:27 1904
    97  3.4794e-02  7.5011e-02  7.7776e-02  1.0151e+00  3.4877e-02  0:00:22 1903
    98  3.5800e-02  7.7233e-02  7.4980e-02  9.9707e-01  3.5879e-02  0:06:38 1902
    99  3.6667e-02  7.9109e-02  7.2074e-02  9.9616e-01  3.6736e-02  0:05:18 1901

  iter  continuity  x-velocity  y-velocity  z-velocity      energy     time/iter
   100  3.7322e-02  8.0653e-02  6.9074e-02  1.0098e+00  3.7377e-02  0:04:14 1900
   101  3.7707e-02  8.1877e-02  6.5681e-02  1.0245e+00  3.7744e-02  0:03:23 1899
   102  3.7760e-02  8.2542e-02  6.2281e-02  1.0497e+00  3.7774e-02  0:02:43 1898
   103  3.7443e-02  8.2563e-02  5.8857e-02  1.0832e+00  3.7432e-02  0:02:10 1897
   104  3.6767e-02  8.1901e-02  5.5163e-02  1.1310e+00  3.6730e-02  0:01:44 1896
   105  3.5664e-02  8.0912e-02  5.1555e-02  1.1899e+00  3.5601e-02  0:01:23 1895
   106  3.4129e-02  7.9518e-02  4.8103e-02  1.2537e+00  3.4040e-02  0:01:06 1894
   107  3.2404e-02  7.7576e-02  4.4811e-02  1.3218e+00  3.2289e-02  0:00:53 1893
   108  3.0534e-02  7.5159e-02  4.1892e-02  1.3854e+00  3.0393e-02  0:00:42 1892
   109  2.8541e-02  7.2789e-02  3.9208e-02  1.4462e+00  2.8375e-02  0:00:34 1891
   110  2.6429e-02  6.9955e-02  3.6875e-02  1.4986e+00  2.6240e-02  0:00:27 1890

  iter  continuity  x-velocity  y-velocity  z-velocity      energy     time/iter
   111  2.4342e-02  6.7051e-02  3.5157e-02  1.5512e+00  2.4133e-02  0:06:40 1889
   112  2.2377e-02  6.4233e-02  3.4046e-02  1.6003e+00  2.2152e-02  0:05:19 1888
   113  2.0453e-02  6.1348e-02  3.3587e-02  1.6469e+00  2.0216e-02  0:04:15 1887
   114  1.8608e-02  5.8468e-02  3.3697e-02  1.6908e+00  1.8361e-02  0:03:24 1886
   115  1.6894e-02  5.5575e-02  3.4364e-02  1.7326e+00  1.6643e-02  0:02:43 1885
   116  1.5249e-02  5.2751e-02  3.5397e-02  1.7735e+00  1.4995e-02  0:02:11 1884
   117  1.3757e-02  5.0101e-02  3.6656e-02  1.8120e+00  1.3505e-02  0:01:44 1883
   118  1.2474e-02  4.7770e-02  3.8111e-02  1.8492e+00  1.2231e-02  0:01:23 1882
   119  1.1436e-02  4.5692e-02  3.9681e-02  1.8828e+00  1.1205e-02  0:01:07 1881
   120  1.0667e-02  4.4188e-02  4.1154e-02  1.9139e+00  1.0453e-02  0:07:09 1880
   121  1.0159e-02  4.3345e-02  4.2473e-02  1.9434e+00  9.9677e-03  0:05:43 1879

  iter  continuity  x-velocity  y-velocity  z-velocity      energy     time/iter
   122  9.9259e-03  4.2939e-02  4.3621e-02  1.9712e+00  9.7573e-03  0:04:35 1878
   123  1.0067e-02  4.2980e-02  4.4547e-02  1.9987e+00  9.9205e-03  0:03:39 1877
   124  1.0480e-02  4.3302e-02  4.5237e-02  2.0211e+00  1.0351e-02  0:02:55 1876
   125  1.0828e-02  4.3828e-02  4.5668e-02  2.0341e+00  1.0708e-02  0:02:20 1875
   126  1.1091e-02  4.4996e-02  4.5738e-02  2.0362e+00  1.0978e-02  0:01:52 1874
   127  1.1443e-02  4.5955e-02  4.5673e-02  2.0328e+00  1.1331e-02  0:01:30 1873
   128  1.1826e-02  4.7159e-02  4.5333e-02  2.0252e+00  1.1709e-02  0:01:12 1872
   129  1.2056e-02  4.8505e-02  4.4764e-02  2.0187e+00  1.1931e-02  0:07:12 1871
   130  1.2209e-02  5.0122e-02  4.4018e-02  1.9927e+00  1.2077e-02  0:05:45 1870
   131  1.2491e-02  5.1730e-02  4.3145e-02  1.9411e+00  1.2352e-02  0:04:36 1869
   132  1.2787e-02  5.3169e-02  4.2148e-02  1.8807e+00  1.2640e-02  0:03:41 1868

  iter  continuity  x-velocity  y-velocity  z-velocity      energy     time/iter
   133  1.3144e-02  5.4306e-02  4.1168e-02  1.8338e+00  1.2990e-02  0:02:56 1867
   134  1.3607e-02  5.5519e-02  4.0008e-02  1.8123e+00  1.3448e-02  0:02:21 1866
   135  1.3932e-02  5.6581e-02  3.8698e-02  1.7980e+00  1.3771e-02  0:01:53 1865
   136  1.4268e-02  5.7418e-02  3.7295e-02  1.7905e+00  1.4107e-02  0:01:30 1864
   137  1.4776e-02  5.7951e-02  3.5857e-02  1.7890e+00  1.4618e-02  0:01:12 1863
   138  1.5314e-02  5.8167e-02  3.4383e-02  1.7908e+00  1.5160e-02  0:07:10 1862
   139  1.5756e-02  5.8092e-02  3.2883e-02  1.7869e+00  1.5608e-02  0:05:44 1861
   140  1.6000e-02  5.7669e-02  3.1397e-02  1.7865e+00  1.5859e-02  0:04:35 1860
   141  1.6025e-02  5.7003e-02  2.9932e-02  1.8022e+00  1.5890e-02  0:03:40 1859
   142  1.5971e-02  5.6223e-02  2.8450e-02  1.8411e+00  1.5845e-02  0:02:56 1858
   143  1.5795e-02  5.5012e-02  2.7047e-02  1.8935e+00  1.5676e-02  0:02:21 1857

  iter  continuity  x-velocity  y-velocity  z-velocity      energy     time/iter
   144  1.5623e-02  5.3363e-02  2.5787e-02  1.9536e+00  1.5514e-02  0:01:52 1856
   145  1.5708e-02  5.1408e-02  2.4774e-02  2.0191e+00  1.5608e-02  0:01:30 1855
   146  1.5863e-02  4.9373e-02  2.3635e-02  2.0876e+00  1.5773e-02  0:01:12 1854
   147  1.6624e-02  4.7127e-02  2.2598e-02  2.1251e+00  1.6546e-02  0:07:08 1853
   148  1.7581e-02  4.4884e-02  2.1709e-02  2.1507e+00  1.7514e-02  0:05:42 1852
   149  1.8088e-02  4.2651e-02  2.0894e-02  2.1093e+00  1.8030e-02  0:04:34 1851
   150  1.8673e-02  4.0429e-02  2.0227e-02  2.0675e+00  1.8625e-02  0:03:39 1850
   151  1.9038e-02  3.8265e-02  1.9677e-02  2.0325e+00  1.8998e-02  0:02:55 1849
   152  1.9415e-02  3.6318e-02  1.9242e-02  2.0054e+00  1.9383e-02  0:02:20 1848
   153  1.9955e-02  3.4901e-02  1.8726e-02  1.9951e+00  1.9929e-02  0:01:52 1847
   154  2.0158e-02  3.3735e-02  1.8283e-02  1.9897e+00  2.0137e-02  0:01:29 1846

  iter  continuity  x-velocity  y-velocity  z-velocity      energy     time/iter
   155  2.0087e-02  3.2561e-02  1.7889e-02  2.0087e+00  2.0070e-02  0:01:12 1845
   156  1.9331e-02  3.1239e-02  1.7618e-02  2.0390e+00  1.9317e-02  0:07:06 1844
   157  1.8055e-02  3.0036e-02  1.7247e-02  2.0663e+00  1.8041e-02  0:05:41 1843
   158  1.6440e-02  2.9011e-02  1.6806e-02  2.0967e+00  1.6426e-02  0:04:32 1842
   159  1.4669e-02  2.8159e-02  1.6346e-02  2.1401e+00  1.4652e-02  0:03:38 1841
   160  1.3019e-02  2.7416e-02  1.5889e-02  2.1656e+00  1.2997e-02  0:02:54 1840
   161  1.1816e-02  2.6817e-02  1.5416e-02  2.1682e+00  1.1788e-02  0:02:19 1839
   162  1.1327e-02  2.6354e-02  1.4923e-02  2.1917e+00  1.1290e-02  0:01:51 1838
   163  1.1668e-02  2.6050e-02  1.4340e-02  2.1951e+00  1.1625e-02  0:01:29 1837
   164  1.2679e-02  2.5719e-02  1.3836e-02  2.1722e+00  1.2632e-02  0:07:18 1836
   165  1.3889e-02  2.5395e-02  1.3376e-02  2.1644e+00  1.3839e-02  0:05:50 1835

  iter  continuity  x-velocity  y-velocity  z-velocity      energy     time/iter
   166  1.4909e-02  2.5113e-02  1.2961e-02  2.1802e+00  1.4857e-02  0:04:40 1834
   167  1.5667e-02  2.4831e-02  1.2603e-02  2.2189e+00  1.5614e-02  0:03:44 1833
   168  1.6081e-02  2.4543e-02  1.2276e-02  2.2904e+00  1.6026e-02  0:02:59 1832
   169  1.6127e-02  2.4236e-02  1.1998e-02  2.3790e+00  1.6073e-02  0:02:23 1831
   170  1.5881e-02  2.3873e-02  1.1772e-02  2.4458e+00  1.5827e-02  0:01:55 1830
   171  1.5300e-02  2.3469e-02  1.1621e-02  2.4947e+00  1.5246e-02  0:01:32 1829
   172  1.4420e-02  2.3075e-02  1.1485e-02  2.5036e+00  1.4366e-02  0:01:13 1828
   173  1.3408e-02  2.2696e-02  1.1345e-02  2.5085e+00  1.3354e-02  0:07:04 1827
   174  1.2597e-02  2.2292e-02  1.1195e-02  2.5794e+00  1.2545e-02  0:05:39 1826
   175  1.2273e-02  2.1870e-02  1.1053e-02  2.7906e+00  1.2223e-02  0:04:31 1825
   176  1.2581e-02  2.1418e-02  1.0900e-02  3.1043e+00  1.2535e-02  0:03:37 1824

  iter  continuity  x-velocity  y-velocity  z-velocity      energy     time/iter
   177  1.3236e-02  2.0911e-02  1.0740e-02  3.3973e+00  1.3195e-02  0:02:53 1823
   178  1.3726e-02  2.0355e-02  1.0570e-02  3.4914e+00  1.3686e-02  0:02:19 1822
   179  1.3600e-02  1.9760e-02  1.0415e-02  3.4649e+00  1.3560e-02  0:01:51 1821
   180  1.3204e-02  1.9125e-02  1.0307e-02  3.2614e+00  1.3163e-02  0:01:29 1820
   181  1.2568e-02  1.8481e-02  1.0227e-02  3.0131e+00  1.2524e-02  0:01:11 1819
   182  1.2008e-02  1.7772e-02  1.0197e-02  2.7963e+00  1.1961e-02  0:07:00 1818
   183  1.1702e-02  1.7104e-02  1.0169e-02  2.6227e+00  1.1653e-02  0:05:36 1817
   184  1.1580e-02  1.6470e-02  1.0182e-02  2.5069e+00  1.1530e-02  0:04:29 1816
   185  1.1522e-02  1.5858e-02  1.0258e-02  2.4458e+00  1.1471e-02  0:03:35 1815
   186  1.1472e-02  1.5305e-02  1.0411e-02  2.4087e+00  1.1422e-02  0:02:52 1814
   187  1.1186e-02  1.4855e-02  1.0637e-02  2.4030e+00  1.1136e-02  0:02:17 1813

  iter  continuity  x-velocity  y-velocity  z-velocity      energy     time/iter
   188  1.0791e-02  1.4542e-02  1.0936e-02  2.4263e+00  1.0743e-02  0:01:50 1812
   189  1.0347e-02  1.4377e-02  1.1294e-02  2.4604e+00  1.0301e-02  0:01:28 1811
   190  9.7629e-03  1.4367e-02  1.1706e-02  2.5180e+00  9.7200e-03  0:01:10 1810
   191  9.0976e-03  1.4522e-02  1.2158e-02  2.5241e+00  9.0593e-03  0:06:58 1809
   192  8.3815e-03  1.4843e-02  1.2649e-02  2.5254e+00  8.3494e-03  0:05:34 1808
   193  7.6550e-03  1.5314e-02  1.3162e-02  2.5425e+00  7.6308e-03  0:04:27 1807
   194  6.9864e-03  1.5939e-02  1.3674e-02  2.5767e+00  6.9719e-03  0:03:34 1806
   195  6.3895e-03  1.6680e-02  1.4164e-02  2.6310e+00  6.3858e-03  0:02:51 1805
   196  5.9589e-03  1.7494e-02  1.4619e-02  2.6580e+00  5.9665e-03  0:02:17 1804
   197  5.7733e-03  1.8345e-02  1.5024e-02  2.6486e+00  5.7904e-03  0:01:49 1803
   198  5.8940e-03  1.9216e-02  1.5366e-02  2.5947e+00  5.9168e-03  0:01:27 1802

  iter  continuity  x-velocity  y-velocity  z-velocity      energy     time/iter
   199  6.2996e-03  2.0096e-02  1.5631e-02  2.5358e+00  6.3230e-03  0:01:10 1801
   200  6.9067e-03  2.0971e-02  1.5812e-02  2.5007e+00  6.9268e-03  0:06:56 1800
   201  7.6239e-03  2.1812e-02  1.5902e-02  2.5071e+00  7.6377e-03  0:05:32 1799
   202  8.3726e-03  2.2597e-02  1.5898e-02  2.6298e+00  8.3786e-03  0:04:26 1798
   203  9.1105e-03  2.3299e-02  1.5800e-02  2.8386e+00  9.1076e-03  0:03:33 1797
   204  9.7884e-03  2.3890e-02  1.5615e-02  3.2894e+00  9.7760e-03  0:02:50 1796
   205  1.0352e-02  2.4364e-02  1.5354e-02  3.9352e+00  1.0330e-02  0:02:16 1795
   206  1.0806e-02  2.4722e-02  1.5031e-02  4.5598e+00  1.0774e-02  0:01:49 1794
   207  1.1159e-02  2.4969e-02  1.4666e-02  5.0899e+00  1.1117e-02  0:01:27 1793
   208  1.1390e-02  2.5095e-02  1.4285e-02  5.6004e+00  1.1339e-02  0:07:08 1792
   209  1.1513e-02  2.5107e-02  1.3914e-02  5.9799e+00  1.1454e-02  0:05:42 1791

  iter  continuity  x-velocity  y-velocity  z-velocity      energy     time/iter
   210  1.1527e-02  2.5004e-02  1.3583e-02  6.2545e+00  1.1460e-02  0:04:34 1790
   211  1.1399e-02  2.4772e-02  1.3315e-02  6.4206e+00  1.1326e-02  0:03:39 1789
   212  1.1140e-02  2.4432e-02  1.3146e-02  6.5355e+00  1.1061e-02  0:02:55 1788
   213  1.0780e-02  2.3950e-02  1.3077e-02  6.6529e+00  1.0696e-02  0:02:20 1787
   214  1.0366e-02  2.3323e-02  1.3128e-02  6.8168e+00  1.0279e-02  0:01:52 1786
   215  9.9932e-03  2.2618e-02  1.3261e-02  7.0428e+00  9.9047e-03  0:01:29 1785
   216  9.7398e-03  2.1874e-02  1.3456e-02  7.3565e+00  9.6531e-03  0:01:11 1784
   217  9.5744e-03  2.1088e-02  1.3718e-02  7.6999e+00  9.4921e-03  0:06:54 1783
   218  9.4700e-03  2.0271e-02  1.4036e-02  8.0882e+00  9.3945e-03  0:05:31 1782
   219  9.3821e-03  1.9456e-02  1.4370e-02  8.4961e+00  9.3150e-03  0:04:24 1781
   220  9.3115e-03  1.8738e-02  1.4695e-02  8.8727e+00  9.2540e-03  0:03:31 1780

  iter  continuity  x-velocity  y-velocity  z-velocity      energy     time/iter
   221  9.1160e-03  1.8107e-02  1.5026e-02  9.2597e+00  9.0685e-03  0:02:49 1779
   222  8.8362e-03  1.7595e-02  1.5334e-02  1.0827e+01  8.7988e-03  0:02:15 1778
   223  8.4473e-03  1.7246e-02  1.5604e-02  1.0914e+01  8.4200e-03  0:01:48 1777
   224  8.0208e-03  1.7094e-02  1.5824e-02  1.0470e+01  8.0033e-03  0:01:26 1776
   225  7.6093e-03  1.7145e-02  1.5996e-02  1.0003e+01  7.6010e-03  0:07:04 1775
   226  7.2746e-03  1.7404e-02  1.6108e-02  9.4225e+00  7.2744e-03  0:05:39 1774
   227  7.1139e-03  1.7863e-02  1.6154e-02  8.9248e+00  7.1196e-03  0:04:31 1773
   228  7.1763e-03  1.8573e-02  1.6081e-02  8.6708e+00  7.1854e-03  0:03:37 1772
   229  7.5035e-03  1.9144e-02  1.6003e-02  8.8431e+00  7.5124e-03  0:02:53 1771
   230  8.0225e-03  1.9743e-02  1.5854e-02  9.1280e+00  8.0281e-03  0:02:19 1770
   231  8.5622e-03  2.0385e-02  1.5637e-02  9.5643e+00  8.5628e-03  0:01:51 1769

  iter  continuity  x-velocity  y-velocity  z-velocity      energy     time/iter
   232  9.0371e-03  2.1040e-02  1.5359e-02  9.9158e+00  9.0311e-03  0:01:29 1768
   233  9.4491e-03  2.1680e-02  1.5042e-02  1.0065e+01  9.4354e-03  0:01:11 1767
   234  9.7852e-03  2.2282e-02  1.4690e-02  1.0220e+01  9.7629e-03  0:06:50 1766
   235  1.0092e-02  2.2834e-02  1.4336e-02  1.0237e+01  1.0060e-02  0:05:28 1765
   236  1.0353e-02  2.3294e-02  1.3993e-02  1.0156e+01  1.0311e-02  0:04:22 1764
   237  1.0510e-02  2.3665e-02  1.3667e-02  9.9181e+00  1.0457e-02  0:03:29 1763
   238  1.0556e-02  2.3956e-02  1.3354e-02  9.6337e+00  1.0491e-02  0:02:47 1762
   239  1.0582e-02  2.4173e-02  1.3069e-02  9.3932e+00  1.0505e-02  0:02:14 1761
   240  1.0685e-02  2.4315e-02  1.2832e-02  9.2157e+00  1.0596e-02  0:01:47 1760
   241  1.0813e-02  2.4392e-02  1.2651e-02  9.1484e+00  1.0712e-02  0:07:17 1759
   242  1.1204e-02  2.4398e-02  1.2555e-02  9.2719e+00  1.1094e-02  0:05:50 1758

  iter  continuity  x-velocity  y-velocity  z-velocity      energy     time/iter
   243  1.1918e-02  2.4345e-02  1.2570e-02  9.3918e+00  1.1804e-02  0:04:40 1757
   244  1.3001e-02  2.4253e-02  1.2714e-02  9.6511e+00  1.2886e-02  0:03:44 1756
   245  1.4334e-02  2.4143e-02  1.3000e-02  9.9687e+00  1.4221e-02  0:02:59 1755
   246  1.5698e-02  2.4013e-02  1.3419e-02  1.0620e+01  1.5589e-02  0:02:23 1754
   247  1.6854e-02  2.3846e-02  1.3971e-02  1.1364e+01  1.6748e-02  0:01:54 1753
   248  1.7687e-02  2.3626e-02  1.4654e-02  1.2260e+01  1.7583e-02  0:01:31 1752
   249  1.8127e-02  2.3401e-02  1.5439e-02  1.3134e+01  1.8023e-02  0:07:03 1751
   250  1.8337e-02  2.3240e-02  1.6274e-02  1.3832e+01  1.8233e-02  0:05:38 1750
   251  1.8374e-02  2.3250e-02  1.7110e-02  1.4398e+01  1.8271e-02  0:04:31 1749
   252  1.8210e-02  2.3557e-02  1.7856e-02  1.4768e+01  1.8108e-02  0:03:36 1748
   253  1.7894e-02  2.3971e-02  1.8507e-02  1.4827e+01  1.7793e-02  0:02:53 1747

  iter  continuity  x-velocity  y-velocity  z-velocity      energy     time/iter
   254  1.7496e-02  2.4220e-02  1.9047e-02  1.4473e+01  1.7397e-02  0:02:18 1746
   255  1.7004e-02  2.4135e-02  1.9499e-02  1.3924e+01  1.6908e-02  0:01:51 1745
   256  1.6311e-02  2.3829e-02  1.9807e-02  1.3158e+01  1.6219e-02  0:01:28 1744
   257  1.5608e-02  2.3357e-02  2.0049e-02  1.2329e+01  1.5521e-02  0:01:11 1743
   258  1.4765e-02  2.2857e-02  2.0297e-02  1.1457e+01  1.4684e-02  0:06:45 1742
   259  1.3880e-02  2.2364e-02  2.0541e-02  1.1007e+01  1.3805e-02  0:05:24 1741
   260  1.3288e-02  2.1973e-02  2.0724e-02  1.0832e+01  1.3222e-02  0:04:19 1740
   261  1.3691e-02  2.1629e-02  2.0890e-02  1.0884e+01  1.3636e-02  0:03:27 1739
   262  1.5226e-02  2.1450e-02  2.1012e-02  1.1196e+01  1.5183e-02  0:02:45 1738
   263  1.6916e-02  2.1320e-02  2.1070e-02  1.1551e+01  1.6882e-02  0:02:12 1737
   264  1.7914e-02  2.1310e-02  2.1096e-02  1.1701e+01  1.7887e-02  0:01:46 1736

  iter  continuity  x-velocity  y-velocity  z-velocity      energy     time/iter
   265  1.7264e-02  2.1366e-02  2.1085e-02  1.1638e+01  1.7243e-02  0:01:25 1735
   266  1.5433e-02  2.1508e-02  2.1013e-02  1.1670e+01  1.5416e-02  0:01:08 1734
   267  1.3561e-02  2.1758e-02  2.0866e-02  1.1684e+01  1.3550e-02  0:06:41 1733
   268  1.2070e-02  2.2080e-02  2.0643e-02  1.1946e+01  1.2064e-02  0:05:20 1732
   269  1.1103e-02  2.2478e-02  2.0338e-02  1.2505e+01  1.1102e-02  0:04:16 1731
   270  1.0863e-02  2.2884e-02  1.9969e-02  1.3449e+01  1.0864e-02  0:03:25 1730
   271  1.1238e-02  2.3260e-02  1.9520e-02  1.4399e+01  1.1240e-02  0:02:44 1729
   272  1.1680e-02  2.3594e-02  1.8983e-02  1.5089e+01  1.1680e-02  0:02:11 1728
   273  1.1747e-02  2.3875e-02  1.8385e-02  1.5216e+01  1.1745e-02  0:01:45 1727
   274  1.1297e-02  2.4076e-02  1.7755e-02  1.4710e+01  1.1292e-02  0:01:24 1726
   275  1.0631e-02  2.4204e-02  1.7098e-02  1.3944e+01  1.0623e-02  0:01:07 1725

  iter  continuity  x-velocity  y-velocity  z-velocity      energy     time/iter
   276  1.0087e-02  2.4273e-02  1.6411e-02  1.3009e+01  1.0073e-02  0:00:53 1724
   277  9.9293e-03  2.4272e-02  1.5695e-02  1.2335e+01  9.9098e-03  0:00:43 1723
   278  1.0237e-02  2.4192e-02  1.4965e-02  1.2108e+01  1.0212e-02  0:06:19 1722
   279  1.0761e-02  2.4015e-02  1.4228e-02  1.2278e+01  1.0733e-02  0:05:03 1721
   280  1.1194e-02  2.3748e-02  1.3478e-02  1.2517e+01  1.1162e-02  0:04:02 1720
   281  1.1328e-02  2.3385e-02  1.2739e-02  1.2595e+01  1.1294e-02  0:03:14 1719
   282  1.1123e-02  2.2915e-02  1.2030e-02  1.2374e+01  1.1086e-02  0:02:35 1718
   283  1.0662e-02  2.2367e-02  1.1359e-02  1.1923e+01  1.0622e-02  0:02:04 1717
   284  1.0087e-02  2.1721e-02  1.0771e-02  1.1299e+01  1.0046e-02  0:01:39 1716
   285  9.6105e-03  2.1005e-02  1.0280e-02  1.0698e+01  9.5687e-03  0:01:19 1715
   286  9.1622e-03  2.0194e-02  9.9104e-03  1.0161e+01  9.1210e-03  0:01:03 1714

  iter  continuity  x-velocity  y-velocity  z-velocity      energy     time/iter
   287  8.7300e-03  1.9358e-02  9.5798e-03  9.4751e+00  8.6902e-03  0:00:51 1713
   288  8.3064e-03  1.8501e-02  9.3182e-03  8.6760e+00  8.2686e-03  0:00:40 1712
   289  7.9203e-03  1.7610e-02  9.1396e-03  8.0754e+00  7.8853e-03  0:00:32 1711
   290  7.5287e-03  1.6675e-02  9.0527e-03  7.3419e+00  7.4965e-03  0:00:26 1710
   291  6.8682e-03  1.5790e-02  9.0125e-03  6.8080e+00  6.8380e-03  0:00:21 1709
   292  6.1392e-03  1.5010e-02  9.0085e-03  6.4943e+00  6.1105e-03  0:05:58 1708
   293  5.7378e-03  1.4332e-02  9.0629e-03  6.3621e+00  5.7114e-03  0:04:46 1707
   294  6.2515e-03  1.3770e-02  9.1459e-03  6.2567e+00  6.2290e-03  0:03:49 1706
   295  7.3433e-03  1.3364e-02  9.2271e-03  6.1023e+00  7.3238e-03  0:03:03 1705
   296  8.0903e-03  1.3151e-02  9.2956e-03  5.9252e+00  8.0713e-03  0:02:26 1704
   297  8.1877e-03  1.3127e-02  9.3493e-03  5.6879e+00  8.1674e-03  0:01:57 1703

  iter  continuity  x-velocity  y-velocity  z-velocity      energy     time/iter
   298  7.9863e-03  1.3266e-02  9.3768e-03  5.4755e+00  7.9626e-03  0:01:34 1702
   299  7.8861e-03  1.3562e-02  9.3829e-03  5.2524e+00  7.8581e-03  0:01:15 1701
   300  7.8652e-03  1.3975e-02  9.3666e-03  5.0418e+00  7.8317e-03  0:01:00 1700
   301  7.7753e-03  1.4441e-02  9.3370e-03  4.8617e+00  7.7347e-03  0:00:48 1699
   302  7.5300e-03  1.4942e-02  9.2989e-03  4.6756e+00  7.4801e-03  0:00:38 1698
   303  7.1787e-03  1.5445e-02  9.2435e-03  4.5581e+00  7.1170e-03  0:00:31 1697
   304  7.0210e-03  1.5901e-02  9.2194e-03  4.3533e+00  6.9471e-03  0:00:24 1696
   305  7.2206e-03  1.6315e-02  9.2043e-03  4.2320e+00  7.1366e-03  0:00:20 1695
   306  7.6514e-03  1.6689e-02  9.2228e-03  4.1911e+00  7.5597e-03  0:00:16 1694
   307  8.0709e-03  1.7012e-02  9.2859e-03  4.1600e+00  7.9714e-03  0:05:51 1693
   308  8.3701e-03  1.7270e-02  9.4004e-03  4.0064e+00  8.2620e-03  0:04:41 1692

  iter  continuity  x-velocity  y-velocity  z-velocity      energy     time/iter
   309  8.5575e-03  1.7446e-02  9.5598e-03  4.0315e+00  8.4400e-03  0:03:44 1691
   310  8.6619e-03  1.7534e-02  9.7543e-03  4.1065e+00  8.5346e-03  0:02:59 1690
   311  8.6721e-03  1.7532e-02  9.9863e-03  4.1453e+00  8.5345e-03  0:02:23 1689
   312  8.5507e-03  1.7436e-02  1.0263e-02  4.1339e+00  8.4018e-03  0:01:55 1688
   313  8.2983e-03  1.7262e-02  1.0578e-02  4.2823e+00  8.1365e-03  0:01:32 1687
   314  8.0299e-03  1.7002e-02  1.0931e-02  4.3851e+00  7.8559e-03  0:01:13 1686
   315  7.7917e-03  1.6650e-02  1.1338e-02  4.4386e+00  7.6072e-03  0:00:59 1685
   316  7.5682e-03  1.6238e-02  1.1788e-02  4.3887e+00  7.3750e-03  0:00:47 1684
   317  7.3545e-03  1.5790e-02  1.2276e-02  4.2328e+00  7.1545e-03  0:00:37 1683
   318  7.1423e-03  1.5300e-02  1.2802e-02  4.0070e+00  6.9376e-03  0:00:30 1682
   319  6.9408e-03  1.4814e-02  1.3356e-02  3.8254e+00  6.7340e-03  0:00:24 1681

  iter  continuity  x-velocity  y-velocity  z-velocity      energy     time/iter
   320  6.7660e-03  1.4342e-02  1.3939e-02  3.7067e+00  6.5603e-03  0:00:19 1680
   321  6.6064e-03  1.3809e-02  1.4562e-02  3.7241e+00  6.4047e-03  0:05:51 1679
   322  6.5099e-03  1.3418e-02  1.5169e-02  3.8142e+00  6.3166e-03  0:04:41 1678
   323  6.4114e-03  1.3115e-02  1.5775e-02  3.9871e+00  6.2284e-03  0:03:44 1677
   324  6.2601e-03  1.2870e-02  1.6380e-02  4.1714e+00  6.0876e-03  0:02:59 1676
   325  6.0791e-03  1.2716e-02  1.6968e-02  4.3721e+00  5.9179e-03  0:02:23 1675
   326  5.8494e-03  1.2648e-02  1.7531e-02  4.4865e+00  5.6995e-03  0:01:55 1674
   327  5.5388e-03  1.2685e-02  1.8057e-02  4.5561e+00  5.3992e-03  0:01:32 1673
   328  5.1552e-03  1.2844e-02  1.8536e-02  4.5153e+00  5.0249e-03  0:01:13 1672
   329  4.7246e-03  1.3102e-02  1.8962e-02  4.4829e+00  4.6029e-03  0:00:59 1671
   330  4.3319e-03  1.3472e-02  1.9326e-02  4.4161e+00  4.2197e-03  0:00:47 1670

  iter  continuity  x-velocity  y-velocity  z-velocity      energy     time/iter
   331  4.0793e-03  1.3939e-02  1.9621e-02  4.3537e+00  3.9797e-03  0:00:37 1669
   332  4.1558e-03  1.4492e-02  1.9843e-02  4.3535e+00  4.0747e-03  0:00:30 1668
   333  4.6431e-03  1.5115e-02  1.9991e-02  4.4743e+00  4.5829e-03  0:00:24 1667
   334  5.2757e-03  1.5783e-02  2.0062e-02  4.5470e+00  5.2314e-03  0:05:52 1666
   335  5.9742e-03  1.6476e-02  2.0062e-02  4.5621e+00  5.9409e-03  0:04:42 1665
   336  6.4648e-03  1.7185e-02  1.9978e-02  4.5734e+00  6.4384e-03  0:03:45 1664
   337  6.6647e-03  1.7910e-02  1.9807e-02  4.4769e+00  6.6426e-03  0:03:00 1663
   338  6.5364e-03  1.8635e-02  1.9555e-02  4.3332e+00  6.5171e-03  0:02:24 1662
   339  6.2053e-03  1.9342e-02  1.9232e-02  4.0576e+00  6.1881e-03  0:01:55 1661
   340  5.7428e-03  2.0002e-02  1.8843e-02  3.6458e+00  5.7271e-03  0:01:32 1660
   341  5.2293e-03  2.0609e-02  1.8392e-02  3.2224e+00  5.2147e-03  0:01:14 1659

  iter  continuity  x-velocity  y-velocity  z-velocity      energy     time/iter
   342  4.7344e-03  2.1164e-02  1.7884e-02  2.8603e+00  4.7205e-03  0:00:59 1658
   343  4.3101e-03  2.1642e-02  1.7327e-02  2.5157e+00  4.2966e-03  0:00:47 1657
   344  4.0168e-03  2.2054e-02  1.6728e-02  2.2937e+00  4.0035e-03  0:00:38 1656
   345  3.9131e-03  2.2389e-02  1.6097e-02  2.2232e+00  3.8999e-03  0:00:30 1655
   346  4.0385e-03  2.2630e-02  1.5447e-02  2.2368e+00  4.0254e-03  0:05:55 1654
   347  4.4099e-03  2.2775e-02  1.4786e-02  2.3137e+00  4.3968e-03  0:04:44 1653
   348  4.9174e-03  2.2835e-02  1.4121e-02  2.4206e+00  4.9040e-03  0:03:47 1652
   349  5.4452e-03  2.2790e-02  1.3468e-02  2.5223e+00  5.4313e-03  0:03:01 1651
   350  5.9522e-03  2.2631e-02  1.2841e-02  2.6298e+00  5.9375e-03  0:02:25 1650
   351  6.4709e-03  2.2374e-02  1.2246e-02  2.6480e+00  6.4554e-03  0:01:56 1649
   352  6.9592e-03  2.2024e-02  1.1686e-02  2.6553e+00  6.9429e-03  0:01:33 1648

  iter  continuity  x-velocity  y-velocity  z-velocity      energy     time/iter
   353  7.4133e-03  2.1578e-02  1.1167e-02  2.6616e+00  7.3963e-03  0:01:14 1647
   354  7.6684e-03  2.1038e-02  1.0696e-02  2.6466e+00  7.6507e-03  0:00:59 1646
   355  7.5276e-03  2.0405e-02  1.0273e-02  2.5864e+00  7.5090e-03  0:00:47 1645
   356  7.2705e-03  1.9648e-02  9.9761e-03  2.5373e+00  7.2511e-03  0:00:38 1644
   357  6.8809e-03  1.8892e-02  9.6963e-03  2.4275e+00  6.8607e-03  0:00:30 1643
   358  6.3694e-03  1.8126e-02  9.4569e-03  2.3063e+00  6.3485e-03  0:00:24 1642
   359  5.9340e-03  1.7352e-02  9.2760e-03  2.1810e+00  5.9129e-03  0:00:19 1641
   360  5.8130e-03  1.6578e-02  9.1539e-03  2.0731e+00  5.7926e-03  0:05:43 1640
   361  6.0576e-03  1.5831e-02  9.0748e-03  1.9896e+00  6.0388e-03  0:04:35 1639
   362  6.4895e-03  1.5161e-02  9.0140e-03  1.9204e+00  6.4727e-03  0:03:40 1638
   363  6.9004e-03  1.4508e-02  9.0074e-03  1.8490e+00  6.8855e-03  0:02:56 1637

  iter  continuity  x-velocity  y-velocity  z-velocity      energy     time/iter
   364  7.0520e-03  1.3906e-02  9.0227e-03  1.7966e+00  7.0389e-03  0:02:20 1636
   365  7.0991e-03  1.3368e-02  9.0469e-03  1.7689e+00  7.0877e-03  0:01:52 1635
   366  7.0817e-03  1.2918e-02  9.0716e-03  1.7504e+00  7.0722e-03  0:01:30 1634
   367  7.1070e-03  1.2580e-02  9.0906e-03  1.7403e+00  7.0993e-03  0:01:12 1633
   368  7.3281e-03  1.2363e-02  9.1020e-03  1.7409e+00  7.3218e-03  0:00:57 1632
   369  7.8158e-03  1.2269e-02  9.1014e-03  1.7508e+00  7.8106e-03  0:00:46 1631
   370  8.5585e-03  1.2258e-02  9.0822e-03  1.8014e+00  8.5534e-03  0:00:37 1630
   371  8.6143e-03  1.2317e-02  9.0374e-03  1.8404e+00  8.6100e-03  0:00:29 1629
   372  8.4105e-03  1.2421e-02  8.9533e-03  1.9212e+00  8.4067e-03  0:00:23 1628
   373  8.1482e-03  1.2544e-02  8.8005e-03  2.0189e+00  8.1448e-03  0:00:19 1627
   374  7.8782e-03  1.2629e-02  8.6152e-03  2.1081e+00  7.8749e-03  0:00:15 1626

  iter  continuity  x-velocity  y-velocity  z-velocity      energy     time/iter
   375  7.6242e-03  1.2648e-02  8.3848e-03  2.1512e+00  7.6207e-03  0:05:37 1625
   376  7.3593e-03  1.2645e-02  8.1238e-03  2.1473e+00  7.3550e-03  0:04:29 1624
   377  7.0637e-03  1.2673e-02  7.8352e-03  2.0899e+00  7.0585e-03  0:03:35 1623
   378  6.7615e-03  1.2681e-02  7.5333e-03  2.0319e+00  6.7548e-03  0:02:52 1622
   379  6.5270e-03  1.2666e-02  7.2254e-03  1.9966e+00  6.5185e-03  0:02:18 1621
   380  6.4407e-03  1.2650e-02  6.9088e-03  1.9796e+00  6.4303e-03  0:01:50 1620
   381  6.5394e-03  1.2560e-02  6.6186e-03  1.9661e+00  6.5271e-03  0:01:28 1619
   382  6.9927e-03  1.2435e-02  6.3530e-03  2.0162e+00  6.9789e-03  0:01:10 1618
   383  7.5242e-03  1.2306e-02  6.1105e-03  2.1051e+00  7.5090e-03  0:00:56 1617
   384  7.8930e-03  1.2105e-02  5.9118e-03  2.2408e+00  7.8766e-03  0:00:45 1616
   385  7.9585e-03  1.1871e-02  5.7507e-03  2.4448e+00  7.9409e-03  0:00:36 1615

  iter  continuity  x-velocity  y-velocity  z-velocity      energy     time/iter
   386  7.9378e-03  1.1589e-02  5.6263e-03  2.7922e+00  7.9190e-03  0:00:29 1614
   387  7.7415e-03  1.1253e-02  5.5438e-03  2.9307e+00  7.7215e-03  0:00:23 1613
   388  7.0621e-03  1.0904e-02  5.4935e-03  2.8270e+00  7.0406e-03  0:00:18 1612
   389  6.1478e-03  1.0526e-02  5.4885e-03  2.6690e+00  6.1243e-03  0:05:37 1611
   390  5.4258e-03  1.0130e-02  5.5331e-03  2.4672e+00  5.4004e-03  0:04:29 1610
   391  5.1038e-03  9.7516e-03  5.6133e-03  2.4075e+00  5.0778e-03  0:03:35 1609
   392  5.2344e-03  9.4009e-03  5.7311e-03  2.4794e+00  5.2096e-03  0:02:52 1608
   393  5.6246e-03  9.0697e-03  5.8879e-03  2.6090e+00  5.6019e-03  0:02:18 1607
   394  6.1257e-03  8.7775e-03  6.0695e-03  2.7607e+00  6.1054e-03  0:01:50 1606
   395  6.5916e-03  8.5348e-03  6.2537e-03  2.8656e+00  6.5733e-03  0:01:28 1605
   396  7.0444e-03  8.3407e-03  6.4406e-03  2.9006e+00  7.0280e-03  0:01:10 1604

  iter  continuity  x-velocity  y-velocity  z-velocity      energy     time/iter
   397  7.5864e-03  8.1826e-03  6.6242e-03  2.9487e+00  7.5718e-03  0:00:56 1603
   398  8.0043e-03  8.0413e-03  6.8195e-03  2.9769e+00  7.9912e-03  0:00:45 1602
   399  7.6335e-03  8.0235e-03  6.9789e-03  2.7865e+00  7.6218e-03  0:00:36 1601
   400  6.8126e-03  8.0722e-03  7.1298e-03  2.5488e+00  6.8024e-03  0:00:29 1600
   401  5.9907e-03  8.1767e-03  7.2692e-03  2.4248e+00  5.9820e-03  0:00:23 1599
   402  5.3864e-03  8.3173e-03  7.3916e-03  2.2995e+00  5.3793e-03  0:00:18 1598
   403  5.0708e-03  8.5000e-03  7.4958e-03  2.1946e+00  5.0652e-03  0:05:34 1597
   404  5.0217e-03  8.7666e-03  7.5763e-03  2.1062e+00  5.0173e-03  0:04:27 1596
   405  5.1409e-03  9.0751e-03  7.6339e-03  2.0676e+00  5.1374e-03  0:03:34 1595
   406  5.4267e-03  9.3903e-03  7.6729e-03  2.0854e+00  5.4234e-03  0:02:51 1594
   407  5.8521e-03  9.7461e-03  7.6772e-03  2.3445e+00  5.8487e-03  0:02:16 1593

  iter  continuity  x-velocity  y-velocity  z-velocity      energy     time/iter
   408  6.2777e-03  1.0085e-02  7.6561e-03  2.5005e+00  6.2737e-03  0:01:49 1592
   409  6.5978e-03  1.0357e-02  7.6226e-03  2.6321e+00  6.5931e-03  0:01:27 1591
   410  6.8762e-03  1.0640e-02  7.5546e-03  2.8118e+00  6.8705e-03  0:01:10 1590
   411  7.1261e-03  1.0876e-02  7.4586e-03  3.0292e+00  7.1194e-03  0:00:56 1589
   412  7.3295e-03  1.1025e-02  7.3341e-03  3.1554e+00  7.3217e-03  0:00:45 1588
   413  7.3304e-03  1.1133e-02  7.1670e-03  3.0783e+00  7.3214e-03  0:00:36 1587
   414  6.9489e-03  1.1176e-02  6.9650e-03  2.8456e+00  6.9387e-03  0:00:29 1586
   415  6.3302e-03  1.1145e-02  6.7380e-03  2.6031e+00  6.3186e-03  0:00:23 1585
   416  5.7150e-03  1.1076e-02  6.4872e-03  2.4092e+00  5.7017e-03  0:00:18 1584
   417  5.3160e-03  1.0965e-02  6.2324e-03  2.2839e+00  5.3010e-03  0:05:31 1583
   418  5.3355e-03  1.0814e-02  5.9926e-03  2.2250e+00  5.3194e-03  0:04:25 1582

  iter  continuity  x-velocity  y-velocity  z-velocity      energy     time/iter
   419  5.7797e-03  1.0647e-02  5.7724e-03  2.2290e+00  5.7635e-03  0:03:32 1581
   420  6.4102e-03  1.0464e-02  5.5852e-03  2.3583e+00  6.3944e-03  0:02:49 1580
   421  6.9685e-03  1.0253e-02  5.4414e-03  2.5117e+00  6.9531e-03  0:02:15 1579
   422  7.3209e-03  1.0021e-02  5.3388e-03  2.6058e+00  7.3060e-03  0:01:48 1578
   423  7.4104e-03  9.7688e-03  5.2713e-03  2.6697e+00  7.3960e-03  0:01:26 1577
   424  7.4823e-03  9.4947e-03  5.2374e-03  2.6309e+00  7.4686e-03  0:01:09 1576
   425  7.6303e-03  9.1940e-03  5.2471e-03  2.5212e+00  7.6176e-03  0:00:55 1575
   426  7.7495e-03  8.8904e-03  5.3009e-03  2.4381e+00  7.7378e-03  0:00:44 1574
   427  7.6657e-03  8.5967e-03  5.3954e-03  2.2836e+00  7.6548e-03  0:00:35 1573
   428  7.4982e-03  8.3228e-03  5.5209e-03  2.3418e+00  7.4883e-03  0:00:28 1572
   429  7.1795e-03  8.0547e-03  5.6533e-03  2.4168e+00  7.1707e-03  0:00:23 1571

  iter  continuity  x-velocity  y-velocity  z-velocity      energy     time/iter
   430  6.9457e-03  7.7790e-03  5.7745e-03  2.3918e+00  6.9380e-03  0:00:18 1570
   431  6.7557e-03  7.5212e-03  5.8830e-03  2.2706e+00  6.7489e-03  0:00:14 1569
   432  6.6079e-03  7.3537e-03  5.9667e-03  2.1060e+00  6.6019e-03  0:05:25 1568
   433  6.4768e-03  7.2631e-03  6.0412e-03  1.9541e+00  6.4713e-03  0:04:20 1567
   434  6.3172e-03  7.2740e-03  6.0999e-03  1.8726e+00  6.3120e-03  0:03:28 1566
   435  6.2908e-03  7.3853e-03  6.1393e-03  1.9425e+00  6.2856e-03  0:02:46 1565
   436  6.3157e-03  7.5347e-03  6.1715e-03  2.0730e+00  6.3101e-03  0:02:13 1564
   437  6.6842e-03  7.7719e-03  6.1804e-03  2.2255e+00  6.6775e-03  0:01:46 1563
   438  7.2720e-03  8.0251e-03  6.1657e-03  2.4089e+00  7.2641e-03  0:01:25 1562
   439  7.6840e-03  8.2771e-03  6.1142e-03  2.4883e+00  7.6749e-03  0:01:08 1561
   440  7.8656e-03  8.5045e-03  6.0329e-03  2.6195e+00  7.8553e-03  0:00:54 1560

  iter  continuity  x-velocity  y-velocity  z-velocity      energy     time/iter
   441  7.6712e-03  8.6781e-03  5.9252e-03  2.5693e+00  7.6594e-03  0:00:43 1559
   442  7.2306e-03  8.8402e-03  5.7961e-03  2.3985e+00  7.2171e-03  0:00:35 1558
   443  6.6263e-03  8.9915e-03  5.6726e-03  2.2223e+00  6.6103e-03  0:00:28 1557
   444  6.1609e-03  9.1591e-03  5.5612e-03  2.0790e+00  6.1420e-03  0:00:22 1556
   445  6.1623e-03  9.3088e-03  5.4963e-03  2.0093e+00  6.1408e-03  0:00:18 1555
   446  6.6802e-03  9.4639e-03  5.4823e-03  1.9924e+00  6.6572e-03  0:05:25 1554
   447  7.3286e-03  9.6216e-03  5.5216e-03  2.0591e+00  7.3044e-03  0:04:20 1553
   448  7.7431e-03  9.7534e-03  5.6031e-03  2.1935e+00  7.7174e-03  0:03:28 1552
   449  7.9109e-03  9.8399e-03  5.7101e-03  2.2449e+00  7.8830e-03  0:02:46 1551
   450  7.9684e-03  9.8713e-03  5.8303e-03  2.2224e+00  7.9382e-03  0:02:13 1550
   451  7.9857e-03  9.8518e-03  5.9572e-03  2.0796e+00  7.9530e-03  0:01:46 1549

  iter  continuity  x-velocity  y-velocity  z-velocity      energy     time/iter
   452  8.0284e-03  9.7927e-03  6.1019e-03  1.9897e+00  7.9934e-03  0:01:25 1548
   453  7.9891e-03  9.7046e-03  6.2741e-03  1.9950e+00  7.9516e-03  0:01:08 1547
   454  7.7690e-03  9.5789e-03  6.4631e-03  2.1048e+00  7.7285e-03  0:00:54 1546
   455  7.4618e-03  9.4208e-03  6.6577e-03  2.3050e+00  7.4180e-03  0:00:43 1545
   456  7.1323e-03  9.2443e-03  6.8503e-03  2.4114e+00  7.0850e-03  0:00:35 1544
   457  6.7644e-03  9.0366e-03  7.0517e-03  2.4150e+00  6.7135e-03  0:00:28 1543
   458  6.3744e-03  8.8585e-03  7.2476e-03  2.3035e+00  6.3198e-03  0:00:22 1542
   459  6.0596e-03  8.7214e-03  7.4421e-03  2.1943e+00  6.0019e-03  0:00:18 1541
   460  5.8983e-03  8.5901e-03  7.6460e-03  2.0596e+00  5.8390e-03  0:00:14 1540
   461  5.9422e-03  8.5239e-03  7.8539e-03  2.1070e+00  5.8834e-03  0:05:19 1539
   462  6.1260e-03  8.4571e-03  8.0795e-03  2.1553e+00  6.0693e-03  0:04:15 1538

  iter  continuity  x-velocity  y-velocity  z-velocity      energy     time/iter
   463  6.6413e-03  8.4533e-03  8.2942e-03  2.2520e+00  6.5891e-03  0:03:24 1537
   464  7.2015e-03  8.5014e-03  8.4980e-03  2.3935e+00  7.1536e-03  0:02:43 1536
   465  7.4910e-03  8.5159e-03  8.6898e-03  2.4912e+00  7.4457e-03  0:02:10 1535
   466  7.6672e-03  8.4987e-03  8.8607e-03  2.5882e+00  7.6241e-03  0:01:44 1534
   467  7.5537e-03  8.4699e-03  8.9991e-03  2.5549e+00  7.5116e-03  0:01:23 1533
   468  7.1876e-03  8.4143e-03  9.1117e-03  2.4378e+00  7.1456e-03  0:01:07 1532
   469  6.5405e-03  8.3702e-03  9.2046e-03  2.2711e+00  6.4971e-03  0:00:53 1531
   470  6.0654e-03  8.3700e-03  9.2833e-03  2.1508e+00  6.0211e-03  0:00:43 1530
   471  6.1488e-03  8.4122e-03  9.3531e-03  2.1539e+00  6.1068e-03  0:00:34 1529
   472  6.7962e-03  8.5062e-03  9.4129e-03  2.3041e+00  6.7590e-03  0:05:33 1528
   473  7.5296e-03  8.6510e-03  9.4573e-03  2.4542e+00  7.4964e-03  0:04:26 1527

  iter  continuity  x-velocity  y-velocity  z-velocity      energy     time/iter
   474  7.9948e-03  8.8254e-03  9.4820e-03  2.5332e+00  7.9641e-03  0:03:33 1526
   475  8.2028e-03  9.0041e-03  9.4824e-03  2.5838e+00  8.1735e-03  0:02:50 1525
   476  8.3210e-03  9.1811e-03  9.4514e-03  2.5960e+00  8.2927e-03  0:02:16 1524
   477  8.4457e-03  9.3642e-03  9.3927e-03  2.4650e+00  8.4185e-03  0:01:49 1523
   478  8.5160e-03  9.5537e-03  9.3083e-03  2.3455e+00  8.4896e-03  0:01:27 1522
   479  8.2435e-03  9.7385e-03  9.1985e-03  2.3215e+00  8.2172e-03  0:01:09 1521
   480  7.4954e-03  9.8892e-03  9.0663e-03  2.2370e+00  7.4682e-03  0:00:56 1520
   481  6.6979e-03  1.0004e-02  8.9072e-03  2.2520e+00  6.6693e-03  0:00:44 1519
   482  6.1049e-03  1.0092e-02  8.7230e-03  2.2027e+00  6.0750e-03  0:00:36 1518
   483  5.7356e-03  1.0170e-02  8.5160e-03  2.1578e+00  5.7050e-03  0:00:28 1517
   484  5.5567e-03  1.0229e-02  8.2960e-03  2.1001e+00  5.5261e-03  0:00:23 1516

  iter  continuity  x-velocity  y-velocity  z-velocity      energy     time/iter
   485  5.5326e-03  1.0301e-02  8.0643e-03  1.9743e+00  5.5027e-03  0:00:18 1515
   486  5.7273e-03  1.0379e-02  7.8213e-03  2.0022e+00  5.6990e-03  0:05:17 1514
   487  6.1220e-03  1.0380e-02  7.5801e-03  2.0988e+00  6.0957e-03  0:04:14 1513
   488  6.5962e-03  1.0399e-02  7.3356e-03  2.2363e+00  6.5716e-03  0:03:23 1512
   489  7.0461e-03  1.0402e-02  7.0945e-03  2.3644e+00  7.0230e-03  0:02:42 1511
   490  7.4189e-03  1.0326e-02  6.8675e-03  2.4725e+00  7.3969e-03  0:02:10 1510
   491  7.6435e-03  1.0250e-02  6.6316e-03  2.5879e+00  7.6222e-03  0:01:44 1509
   492  7.7408e-03  1.0128e-02  6.3832e-03  2.6634e+00  7.7199e-03  0:01:23 1508
   493  7.5480e-03  9.9194e-03  6.1254e-03  2.5976e+00  7.5271e-03  0:01:06 1507
   494  7.1315e-03  9.6868e-03  5.8371e-03  2.4720e+00  7.1101e-03  0:00:53 1506
   495  6.7022e-03  9.3902e-03  5.5324e-03  2.3379e+00  6.6802e-03  0:00:42 1505

  iter  continuity  x-velocity  y-velocity  z-velocity      energy     time/iter
   496  6.4836e-03  9.0760e-03  5.2234e-03  2.2363e+00  6.4613e-03  0:00:34 1504
   497  6.6983e-03  8.7631e-03  4.9333e-03  2.2552e+00  6.6764e-03  0:00:27 1503
   498  7.2652e-03  8.4832e-03  4.6741e-03  2.3566e+00  7.2442e-03  0:00:22 1502
   499  7.8340e-03  8.2274e-03  4.4611e-03  2.5542e+00  7.8135e-03  0:00:17 1501
   500  8.1734e-03  8.0127e-03  4.2881e-03  2.7155e+00  8.1530e-03  0:05:14 1500
   501  8.3988e-03  7.8433e-03  4.1601e-03  2.8140e+00  8.3783e-03  0:04:11 1499
   502  8.6252e-03  7.7073e-03  4.0531e-03  2.8030e+00  8.6045e-03  0:03:21 1498
   503  8.9272e-03  7.5888e-03  3.9934e-03  2.7532e+00  8.9063e-03  0:02:40 1497
   504  9.4652e-03  7.5005e-03  3.9739e-03  2.7462e+00  9.4443e-03  0:02:08 1496
   505  9.5850e-03  7.4682e-03  3.9696e-03  2.7406e+00  9.5636e-03  0:01:42 1495
   506  8.9020e-03  7.4281e-03  3.9768e-03  2.7995e+00  8.8793e-03  0:01:22 1494

  iter  continuity  x-velocity  y-velocity  z-velocity      energy     time/iter
   507  7.9982e-03  7.3277e-03  3.9834e-03  3.1096e+00  7.9735e-03  0:01:06 1493
   508  7.1591e-03  7.1648e-03  3.9783e-03  3.5035e+00  7.1319e-03  0:00:52 1492
   509  6.4933e-03  6.9615e-03  3.9647e-03  3.8603e+00  6.4632e-03  0:00:42 1491
   510  6.0813e-03  6.8192e-03  3.9382e-03  4.0382e+00  6.0487e-03  0:00:33 1490
   511  5.9212e-03  6.7146e-03  3.9458e-03  4.1009e+00  5.8869e-03  0:00:27 1489
   512  6.1158e-03  6.7083e-03  3.9782e-03  3.9489e+00  6.0815e-03  0:00:21 1488
   513  6.6611e-03  6.7796e-03  4.0423e-03  3.8175e+00  6.6281e-03  0:00:17 1487
   514  7.2872e-03  6.7978e-03  4.1679e-03  3.7392e+00  7.2556e-03  0:00:14 1486
   515  7.9328e-03  6.8926e-03  4.3195e-03  3.8060e+00  7.9023e-03  0:05:08 1485
   516  8.3671e-03  6.9639e-03  4.4982e-03  3.9471e+00  8.3371e-03  0:04:06 1484
   517  8.5436e-03  6.9486e-03  4.6926e-03  4.1053e+00  8.5136e-03  0:03:17 1483

  iter  continuity  x-velocity  y-velocity  z-velocity      energy     time/iter
   518  8.5031e-03  6.9298e-03  4.8660e-03  4.2158e+00  8.4727e-03  0:02:37 1482
   519  8.2511e-03  6.8330e-03  5.0280e-03  4.2090e+00  8.2199e-03  0:02:06 1481
   520  7.7625e-03  6.6824e-03  5.1829e-03  4.0971e+00  7.7299e-03  0:01:41 1480
   521  7.1874e-03  6.5145e-03  5.3359e-03  3.9402e+00  7.1529e-03  0:01:20 1479
   522  6.8022e-03  6.3475e-03  5.4985e-03  3.9186e+00  6.7662e-03  0:01:04 1478
   523  6.9948e-03  6.2004e-03  5.6848e-03  3.9647e+00  6.9593e-03  0:00:51 1477
   524  7.6727e-03  6.1185e-03  5.8918e-03  4.1053e+00  7.6392e-03  0:00:41 1476
   525  8.3219e-03  6.0967e-03  6.1177e-03  4.2799e+00  8.2898e-03  0:00:33 1475
   526  8.7133e-03  6.1003e-03  6.3510e-03  4.6161e+00  8.6818e-03  0:00:26 1474
   527  8.8755e-03  6.1456e-03  6.5747e-03  4.8578e+00  8.8441e-03  0:00:21 1473
   528  8.9146e-03  6.2231e-03  6.7892e-03  5.0553e+00  8.8829e-03  0:00:17 1472

  iter  continuity  x-velocity  y-velocity  z-velocity      energy     time/iter
   529  8.9666e-03  6.3178e-03  6.9900e-03  5.1181e+00  8.9348e-03  0:05:08 1471
   530  9.2000e-03  6.4410e-03  7.1828e-03  4.9742e+00  9.1685e-03  0:04:06 1470
   531  9.6817e-03  6.6249e-03  7.3627e-03  4.7989e+00  9.6511e-03  0:03:17 1469
   532  9.1094e-03  6.8577e-03  7.5243e-03  4.4436e+00  9.0780e-03  0:02:37 1468
   533  8.2160e-03  7.0516e-03  7.6609e-03  4.2404e+00  8.1829e-03  0:02:06 1467
   534  7.3173e-03  7.1775e-03  7.7668e-03  4.2187e+00  7.2822e-03  0:01:40 1466
   535  6.5379e-03  7.2552e-03  7.8367e-03  4.3694e+00  6.5008e-03  0:01:20 1465
   536  5.9814e-03  7.2948e-03  7.8785e-03  4.5446e+00  5.9427e-03  0:01:04 1464
   537  5.7013e-03  7.4030e-03  7.8894e-03  4.6234e+00  5.6625e-03  0:00:51 1463
   538  5.7610e-03  7.5563e-03  7.8904e-03  4.5585e+00  5.7241e-03  0:00:41 1462
   539  6.2038e-03  7.7785e-03  7.8863e-03  4.3248e+00  6.1704e-03  0:00:33 1461

  iter  continuity  x-velocity  y-velocity  z-velocity      energy     time/iter
   540  6.9649e-03  8.0611e-03  7.8779e-03  4.2019e+00  6.9354e-03  0:00:26 1460
   541  7.6639e-03  8.2740e-03  7.8874e-03  4.1760e+00  7.6375e-03  0:00:21 1459
   542  8.2758e-03  8.5165e-03  7.8927e-03  4.1629e+00  8.2516e-03  0:00:17 1458
   543  8.5911e-03  8.7307e-03  7.8865e-03  4.3590e+00  8.5686e-03  0:05:05 1457
   544  8.5798e-03  8.8323e-03  7.8630e-03  4.5729e+00  8.5584e-03  0:04:04 1456
   545  8.3218e-03  8.8870e-03  7.7997e-03  4.6014e+00  8.3014e-03  0:03:15 1455
   546  7.7769e-03  8.8652e-03  7.7010e-03  4.5713e+00  7.7572e-03  0:02:36 1454
   547  7.0568e-03  8.7698e-03  7.5717e-03  4.2699e+00  7.0376e-03  0:02:05 1453
   548  6.3125e-03  8.6560e-03  7.4221e-03  3.9698e+00  6.2937e-03  0:01:40 1452
   549  6.0361e-03  8.5404e-03  7.2674e-03  3.8074e+00  6.0179e-03  0:01:20 1451
   550  6.4813e-03  8.4481e-03  7.1164e-03  3.8714e+00  6.4644e-03  0:01:04 1450

  iter  continuity  x-velocity  y-velocity  z-velocity      energy     time/iter
   551  7.2742e-03  8.4006e-03  6.9728e-03  4.0555e+00  7.2584e-03  0:00:51 1449
   552  7.8897e-03  8.3917e-03  6.8378e-03  4.1999e+00  7.8745e-03  0:00:41 1448
   553  8.2587e-03  8.3847e-03  6.7066e-03  4.3724e+00  8.2438e-03  0:00:33 1447
   554  8.4161e-03  8.3840e-03  6.5667e-03  4.5664e+00  8.4014e-03  0:00:26 1446
   555  8.4466e-03  8.3873e-03  6.4161e-03  4.6456e+00  8.4321e-03  0:00:21 1445
   556  8.4690e-03  8.3916e-03  6.2636e-03  4.5857e+00  8.4547e-03  0:00:17 1444
   557  8.6232e-03  8.4081e-03  6.1112e-03  4.3060e+00  8.6090e-03  0:00:13 1443
   558  8.8956e-03  8.4490e-03  5.9705e-03  4.1268e+00  8.8817e-03  0:04:59 1442
   559  8.3274e-03  8.5323e-03  5.8265e-03  3.9569e+00  8.3138e-03  0:03:59 1441
   560  7.5134e-03  8.5959e-03  5.6830e-03  3.8730e+00  7.5000e-03  0:03:11 1440
   561  6.7778e-03  8.5829e-03  5.5310e-03  4.1634e+00  6.7647e-03  0:02:33 1439

  iter  continuity  x-velocity  y-velocity  z-velocity      energy     time/iter
   562  6.2019e-03  8.5257e-03  5.3595e-03  4.5673e+00  6.1891e-03  0:02:02 1438
   563  5.8481e-03  8.4013e-03  5.1726e-03  4.9952e+00  5.8356e-03  0:01:38 1437
   564  5.7361e-03  8.2966e-03  4.9681e-03  5.1402e+00  5.7241e-03  0:01:18 1436
   565  5.8690e-03  8.2321e-03  4.7608e-03  5.2121e+00  5.8577e-03  0:01:02 1435
   566  6.1703e-03  8.1868e-03  4.5804e-03  4.9830e+00  6.1594e-03  0:00:50 1434
   567  6.7555e-03  8.2203e-03  4.4146e-03  4.7431e+00  6.7448e-03  0:00:40 1433
   568  7.3173e-03  8.2213e-03  4.3047e-03  4.6232e+00  7.3067e-03  0:00:32 1432
   569  7.9047e-03  8.2281e-03  4.2391e-03  4.6016e+00  7.8941e-03  0:00:25 1431
   570  8.3291e-03  8.2429e-03  4.1834e-03  4.8018e+00  8.3184e-03  0:00:20 1430
   571  8.4370e-03  8.1545e-03  4.1277e-03  5.0262e+00  8.4263e-03  0:00:16 1429
   572  8.2912e-03  8.0143e-03  4.0285e-03  5.1249e+00  8.2806e-03  0:04:59 1428

  iter  continuity  x-velocity  y-velocity  z-velocity      energy     time/iter
   573  7.8817e-03  7.7945e-03  3.8800e-03  5.2246e+00  7.8714e-03  0:03:59 1427
   574  7.1517e-03  7.4797e-03  3.6928e-03  4.9691e+00  7.1419e-03  0:03:11 1426
   575  6.2364e-03  7.1368e-03  3.4831e-03  4.7064e+00  6.2271e-03  0:02:33 1425
   576  5.5934e-03  6.7993e-03  3.2887e-03  4.5351e+00  5.5843e-03  0:02:02 1424
   577  5.6979e-03  6.4998e-03  3.1326e-03  4.5904e+00  5.6889e-03  0:01:38 1423
   578  6.3788e-03  6.2778e-03  3.0373e-03  4.8196e+00  6.3695e-03  0:01:18 1422
   579  7.0710e-03  6.1466e-03  3.0099e-03  5.0670e+00  7.0615e-03  0:01:02 1421
   580  7.5765e-03  6.0636e-03  3.0355e-03  5.2613e+00  7.5666e-03  0:00:50 1420
   581  7.8665e-03  6.0001e-03  3.0826e-03  5.5748e+00  7.8564e-03  0:00:40 1419
   582  7.9968e-03  5.9494e-03  3.1397e-03  5.7169e+00  7.9865e-03  0:00:32 1418
   583  8.0942e-03  5.9214e-03  3.1688e-03  5.7259e+00  8.0837e-03  0:00:25 1417

  iter  continuity  x-velocity  y-velocity  z-velocity      energy     time/iter
   584  8.3094e-03  5.9309e-03  3.2059e-03  5.5708e+00  8.2987e-03  0:00:20 1416
   585  8.7911e-03  5.9742e-03  3.2706e-03  5.4613e+00  8.7801e-03  0:00:16 1415
   586  8.2858e-03  6.0704e-03  3.3542e-03  5.3306e+00  8.2750e-03  0:04:56 1414
   587  7.5064e-03  6.1954e-03  3.4502e-03  5.3598e+00  7.4959e-03  0:03:56 1413
   588  6.8948e-03  6.2791e-03  3.5289e-03  5.8966e+00  6.8844e-03  0:03:09 1412
   589  6.4055e-03  6.2896e-03  3.5722e-03  6.3807e+00  6.3952e-03  0:02:31 1411
   590  6.0245e-03  6.2337e-03  3.5737e-03  7.0041e+00  6.0141e-03  0:02:01 1410
   591  5.8105e-03  6.1472e-03  3.5393e-03  7.3581e+00  5.8001e-03  0:01:37 1409
   592  5.7067e-03  6.1169e-03  3.4839e-03  8.3373e+00  5.6963e-03  0:01:17 1408
   593  5.8350e-03  6.0958e-03  3.4436e-03  9.9548e+00  5.8247e-03  0:01:02 1407
   594  6.2663e-03  6.1666e-03  3.4202e-03  8.2595e+00  6.2559e-03  0:00:49 1406

  iter  continuity  x-velocity  y-velocity  z-velocity      energy     time/iter
   595  6.8609e-03  6.3128e-03  3.4262e-03  7.2273e+00  6.8505e-03  0:00:39 1405
   596  7.4276e-03  6.3954e-03  3.5052e-03  7.6984e+00  7.4171e-03  0:00:32 1404
   597  7.9886e-03  6.5389e-03  3.6118e-03  7.8858e+00  7.9779e-03  0:00:25 1403
   598  8.2888e-03  6.6410e-03  3.7235e-03  7.8336e+00  8.2779e-03  0:00:20 1402
   599  8.3307e-03  6.6420e-03  3.8188e-03  7.9370e+00  8.3199e-03  0:00:16 1401
   600  8.1725e-03  6.5943e-03  3.8488e-03  7.9685e+00  8.1620e-03  0:00:13 1400
   601  7.6325e-03  6.4088e-03  3.8341e-03  7.8992e+00  7.6224e-03  0:04:50 1399
   602  6.8142e-03  6.1591e-03  3.7746e-03  7.4303e+00  6.8047e-03  0:03:52 1398
   603  5.9221e-03  5.8840e-03  3.7012e-03  7.1606e+00  5.9133e-03  0:03:05 1397
   604  5.3749e-03  5.6112e-03  3.6430e-03  7.3665e+00  5.3665e-03  0:02:28 1396
   605  5.5442e-03  5.3979e-03  3.6214e-03  7.6945e+00  5.5359e-03  0:01:58 1395

  iter  continuity  x-velocity  y-velocity  z-velocity      energy     time/iter
   606  6.1744e-03  5.2895e-03  3.6380e-03  8.2066e+00  6.1659e-03  0:01:35 1394
   607  6.7888e-03  5.2694e-03  3.6937e-03  8.7383e+00  6.7800e-03  0:01:16 1393
   608  7.2357e-03  5.2944e-03  3.7755e-03  9.3739e+00  7.2267e-03  0:01:01 1392
   609  7.4805e-03  5.3400e-03  3.8491e-03  1.0061e+01  7.4713e-03  0:00:48 1391
   610  7.6100e-03  5.3903e-03  3.9082e-03  1.0890e+01  7.6007e-03  0:00:39 1390
   611  7.7996e-03  5.4521e-03  3.9490e-03  1.1405e+01  7.7901e-03  0:00:31 1389
   612  8.1583e-03  5.5517e-03  3.9877e-03  1.1525e+01  8.1486e-03  0:00:25 1388
   613  8.5758e-03  5.7035e-03  4.0354e-03  1.1649e+01  8.5658e-03  0:00:20 1387
   614  8.1132e-03  5.9187e-03  4.0883e-03  1.1560e+01  8.1036e-03  0:00:16 1386
   615  7.4753e-03  6.1567e-03  4.1499e-03  1.1485e+01  7.4660e-03  0:04:50 1385
   616  7.0228e-03  6.3422e-03  4.1925e-03  1.2025e+01  7.0138e-03  0:03:52 1384

  iter  continuity  x-velocity  y-velocity  z-velocity      energy     time/iter
   617  6.7519e-03  6.4537e-03  4.1958e-03  1.2896e+01  6.7432e-03  0:03:05 1383
   618  6.5440e-03  6.4875e-03  4.1575e-03  1.3965e+01  6.5357e-03  0:02:28 1382
   619  6.3824e-03  6.4903e-03  4.0840e-03  1.4259e+01  6.3743e-03  0:01:58 1381
   620  6.2143e-03  6.5336e-03  3.9819e-03  1.4156e+01  6.2066e-03  0:01:35 1380
   621  6.1517e-03  6.5670e-03  3.8944e-03  1.3366e+01  6.1443e-03  0:01:16 1379
   622  6.3810e-03  6.6934e-03  3.8089e-03  1.4150e+01  6.3736e-03  0:01:00 1378
   623  6.8415e-03  6.8407e-03  3.7507e-03  1.3310e+01  6.8338e-03  0:00:48 1377
   624  7.3450e-03  6.9080e-03  3.7615e-03  1.3352e+01  7.3371e-03  0:00:39 1376
   625  7.9528e-03  7.0383e-03  3.7816e-03  1.3878e+01  7.9444e-03  0:00:31 1375
   626  8.2504e-03  7.0994e-03  3.7999e-03  1.4349e+01  8.2417e-03  0:00:25 1374
   627  8.2350e-03  7.0627e-03  3.7924e-03  1.4708e+01  8.2263e-03  0:00:20 1373

  iter  continuity  x-velocity  y-velocity  z-velocity      energy     time/iter
   628  7.7612e-03  6.9631e-03  3.7110e-03  1.4602e+01  7.7527e-03  0:00:16 1372
   629  7.0199e-03  6.7288e-03  3.5823e-03  1.4095e+01  7.0118e-03  0:04:47 1371
   630  6.3102e-03  6.4470e-03  3.4014e-03  1.3415e+01  6.3027e-03  0:03:49 1370
   631  5.5780e-03  6.1479e-03  3.2099e-03  1.2714e+01  5.5710e-03  0:03:03 1369
   632  5.3515e-03  5.8628e-03  3.0451e-03  1.2076e+01  5.3445e-03  0:02:27 1368
   633  5.7753e-03  5.6418e-03  2.9196e-03  1.2034e+01  5.7681e-03  0:01:57 1367
   634  6.4671e-03  5.5156e-03  2.8546e-03  1.2069e+01  6.4595e-03  0:01:34 1366
   635  7.1248e-03  5.4514e-03  2.8458e-03  1.2129e+01  7.1168e-03  0:01:15 1365
   636  7.5459e-03  5.4052e-03  2.8733e-03  1.2338e+01  7.5377e-03  0:01:00 1364
   637  7.7357e-03  5.3763e-03  2.8968e-03  1.2548e+01  7.7274e-03  0:00:48 1363
   638  7.7606e-03  5.3541e-03  2.9155e-03  1.3049e+01  7.7523e-03  0:00:38 1362

  iter  continuity  x-velocity  y-velocity  z-velocity      energy     time/iter
   639  7.8372e-03  5.3560e-03  2.9389e-03  1.2295e+01  7.8289e-03  0:00:31 1361
   640  8.1741e-03  5.4074e-03  2.9912e-03  1.1345e+01  8.1656e-03  0:00:24 1360
   641  8.1629e-03  5.5208e-03  3.0650e-03  1.0450e+01  8.1544e-03  0:00:20 1359
   642  7.5468e-03  5.6870e-03  3.1530e-03  9.6241e+00  7.5384e-03  0:00:16 1358
   643  7.1148e-03  5.8294e-03  3.2449e-03  9.5455e+00  7.1064e-03  0:04:44 1357
   644  6.7527e-03  5.8953e-03  3.3061e-03  9.9130e+00  6.7443e-03  0:03:47 1356
   645  6.4743e-03  5.9036e-03  3.3229e-03  1.0688e+01  6.4660e-03  0:03:01 1355
   646  6.2416e-03  5.8546e-03  3.2950e-03  1.1016e+01  6.2333e-03  0:02:25 1354
   647  6.0884e-03  5.8527e-03  3.2272e-03  1.1298e+01  6.0804e-03  0:01:56 1353
   648  6.0552e-03  5.8680e-03  3.1613e-03  1.0962e+01  6.0474e-03  0:01:33 1352
   649  6.2742e-03  5.9664e-03  3.1055e-03  1.0475e+01  6.2663e-03  0:01:14 1351

  iter  continuity  x-velocity  y-velocity  z-velocity      energy     time/iter
   650  6.7322e-03  6.1427e-03  3.0756e-03  1.0033e+01  6.7242e-03  0:00:59 1350
   651  7.2080e-03  6.2456e-03  3.1269e-03  9.7552e+00  7.1997e-03  0:00:47 1349
   652  7.8040e-03  6.4135e-03  3.2081e-03  9.8556e+00  7.7952e-03  0:00:38 1348
   653  8.1793e-03  6.5424e-03  3.2950e-03  1.0218e+01  8.1700e-03  0:00:30 1347
   654  8.2449e-03  6.5577e-03  3.3648e-03  1.0510e+01  8.2354e-03  0:00:24 1346
   655  8.0398e-03  6.5203e-03  3.3533e-03  1.0627e+01  8.0304e-03  0:00:19 1345
   656  7.4776e-03  6.3437e-03  3.2901e-03  1.0547e+01  7.4683e-03  0:00:15 1344
   657  6.8446e-03  6.0977e-03  3.1708e-03  1.0259e+01  6.8356e-03  0:00:12 1343
   658  6.0776e-03  5.8339e-03  3.0438e-03  9.8937e+00  6.0690e-03  0:04:38 1342
   659  5.7885e-03  5.5913e-03  2.9495e-03  9.7356e+00  5.7800e-03  0:03:42 1341
   660  6.1832e-03  5.4154e-03  2.9051e-03  1.0080e+01  6.1745e-03  0:02:58 1340

  iter  continuity  x-velocity  y-velocity  z-velocity      energy     time/iter
   661  6.9052e-03  5.3568e-03  2.9291e-03  1.0574e+01  6.8962e-03  0:02:22 1339
   662  7.5691e-03  5.3809e-03  3.0176e-03  1.0990e+01  7.5597e-03  0:01:54 1338
   663  7.9882e-03  5.4307e-03  3.1387e-03  1.1229e+01  7.9785e-03  0:01:31 1337
   664  8.2085e-03  5.4864e-03  3.2599e-03  1.1568e+01  8.1985e-03  0:01:13 1336
   665  8.3175e-03  5.5452e-03  3.3635e-03  1.1595e+01  8.3072e-03  0:00:58 1335
   666  8.4833e-03  5.6357e-03  3.4422e-03  1.1406e+01  8.4726e-03  0:00:46 1334
   667  8.8531e-03  5.7572e-03  3.5295e-03  1.0984e+01  8.8419e-03  0:00:37 1333
   668  8.5656e-03  5.9097e-03  3.6336e-03  1.0333e+01  8.5540e-03  0:00:30 1332
   669  7.7698e-03  6.0877e-03  3.7437e-03  9.8187e+00  7.7577e-03  0:00:24 1331
   670  7.0486e-03  6.2218e-03  3.8403e-03  9.7260e+00  7.0359e-03  0:00:19 1330
   671  6.5748e-03  6.2817e-03  3.8990e-03  1.0098e+01  6.5613e-03  0:00:15 1329

  iter  continuity  x-velocity  y-velocity  z-velocity      energy     time/iter
   672  6.3406e-03  6.2956e-03  3.9276e-03  1.0794e+01  6.3267e-03  0:00:12 1328
   673  6.2405e-03  6.2774e-03  3.9149e-03  1.0902e+01  6.2263e-03  0:04:35 1327
   674  6.1887e-03  6.3043e-03  3.8782e-03  1.0705e+01  6.1746e-03  0:03:40 1326
   675  6.2384e-03  6.3241e-03  3.8511e-03  1.0309e+01  6.2245e-03  0:02:56 1325
   676  6.5400e-03  6.4036e-03  3.8380e-03  1.0002e+01  6.5264e-03  0:02:21 1324
   677  7.0214e-03  6.5577e-03  3.8491e-03  9.8892e+00  7.0081e-03  0:01:52 1323
   678  7.5389e-03  6.6390e-03  3.9264e-03  9.9065e+00  7.5259e-03  0:01:30 1322
   679  8.0105e-03  6.7741e-03  4.0300e-03  1.0041e+01  7.9975e-03  0:01:12 1321
   680  8.1564e-03  6.8760e-03  4.1401e-03  1.0225e+01  8.1434e-03  0:00:57 1320
   681  8.0419e-03  6.8667e-03  4.2358e-03  1.0327e+01  8.0289e-03  0:00:46 1319
   682  7.6607e-03  6.8073e-03  4.2655e-03  1.0352e+01  7.6478e-03  0:00:37 1318

  iter  continuity  x-velocity  y-velocity  z-velocity      energy     time/iter
   683  7.1263e-03  6.6155e-03  4.2476e-03  1.0187e+01  7.1135e-03  0:00:29 1317
   684  6.6563e-03  6.3593e-03  4.1915e-03  9.8342e+00  6.6436e-03  0:04:47 1316
   685  6.1564e-03  6.0962e-03  4.1316e-03  9.4539e+00  6.1438e-03  0:03:49 1315
   686  6.2452e-03  5.8583e-03  4.1012e-03  9.3776e+00  6.2327e-03  0:03:03 1314
   687  6.8655e-03  5.6898e-03  4.1108e-03  9.7335e+00  6.8532e-03  0:02:26 1313
   688  7.5656e-03  5.6409e-03  4.1547e-03  1.0169e+01  7.5533e-03  0:01:57 1312
   689  8.1277e-03  5.6652e-03  4.2394e-03  1.0656e+01  8.1154e-03  0:01:34 1311
   690  8.4858e-03  5.7201e-03  4.3372e-03  1.1063e+01  8.4733e-03  0:01:15 1310
   691  8.7249e-03  5.7843e-03  4.4376e-03  1.1146e+01  8.7121e-03  0:01:00 1309
   692  8.9553e-03  5.8933e-03  4.5196e-03  1.1012e+01  8.9422e-03  0:00:48 1308
   693  9.2759e-03  6.0422e-03  4.5922e-03  1.0476e+01  9.2625e-03  0:00:38 1307

  iter  continuity  x-velocity  y-velocity  z-velocity      energy     time/iter
   694  9.2621e-03  6.2341e-03  4.6619e-03  9.7661e+00  9.2483e-03  0:04:52 1306
   695  8.4305e-03  6.4099e-03  4.7266e-03  9.0699e+00  8.4161e-03  0:03:53 1305
   696  7.4443e-03  6.5366e-03  4.7713e-03  8.7837e+00  7.4291e-03  0:03:06 1304
   697  6.6745e-03  6.5658e-03  4.7884e-03  8.9222e+00  6.6582e-03  0:02:29 1303
   698  6.2300e-03  6.5710e-03  4.7658e-03  9.4516e+00  6.2129e-03  0:01:59 1302
   699  6.0903e-03  6.5575e-03  4.7274e-03  1.0095e+01  6.0728e-03  0:01:35 1301
   700  6.2007e-03  6.6015e-03  4.6670e-03  1.0264e+01  6.1835e-03  0:01:16 1300
   701  6.5057e-03  6.7072e-03  4.6077e-03  1.0078e+01  6.4890e-03  0:01:01 1299
   702  7.0242e-03  6.7563e-03  4.5670e-03  9.8482e+00  7.0083e-03  0:00:49 1298
   703  7.6563e-03  6.8857e-03  4.5288e-03  9.7623e+00  7.6410e-03  0:04:58 1297
   704  8.1605e-03  7.0138e-03  4.5115e-03  9.8118e+00  8.1456e-03  0:03:58 1296

  iter  continuity  x-velocity  y-velocity  z-velocity      energy     time/iter
   705  8.4699e-03  7.0379e-03  4.5310e-03  9.8170e+00  8.4552e-03  0:03:11 1295
   706  8.4725e-03  7.1026e-03  4.5471e-03  9.9796e+00  8.4579e-03  0:02:32 1294
   707  8.2345e-03  7.1080e-03  4.5562e-03  9.8626e+00  8.2198e-03  0:02:02 1293
   708  7.8079e-03  7.0266e-03  4.5443e-03  9.8915e+00  7.7932e-03  0:01:37 1292
   709  7.2014e-03  6.8927e-03  4.4857e-03  9.4797e+00  7.1866e-03  0:01:18 1291
   710  6.7269e-03  6.6781e-03  4.3950e-03  9.3128e+00  6.7120e-03  0:01:02 1290
   711  6.5783e-03  6.4287e-03  4.2947e-03  9.2317e+00  6.5635e-03  0:00:50 1289
   712  6.7606e-03  6.2115e-03  4.2081e-03  9.3780e+00  6.7460e-03  0:04:57 1288
   713  7.3386e-03  6.0241e-03  4.1597e-03  9.7925e+00  7.3243e-03  0:03:58 1287
   714  7.9455e-03  5.9044e-03  4.1466e-03  1.0410e+01  7.9313e-03  0:03:10 1286
   715  8.3923e-03  5.8599e-03  4.1620e-03  1.1189e+01  8.3781e-03  0:02:32 1285

  iter  continuity  x-velocity  y-velocity  z-velocity      energy     time/iter
   716  8.6922e-03  5.8658e-03  4.2099e-03  1.2229e+01  8.6779e-03  0:02:01 1284
   717  8.8557e-03  5.8916e-03  4.2711e-03  1.2968e+01  8.8411e-03  0:01:37 1283
   718  9.1405e-03  5.9532e-03  4.3559e-03  1.3250e+01  9.1256e-03  0:01:18 1282
   719  9.4906e-03  6.0914e-03  4.4464e-03  1.3178e+01  9.4753e-03  0:01:02 1281
   720  9.8741e-03  6.3156e-03  4.5444e-03  1.2867e+01  9.8586e-03  0:00:50 1280
   721  9.2590e-03  6.5575e-03  4.6443e-03  1.2346e+01  9.2429e-03  0:04:55 1279
   722  8.1445e-03  6.7082e-03  4.7244e-03  1.1775e+01  8.1274e-03  0:03:56 1278
   723  7.1038e-03  6.7339e-03  4.7665e-03  1.1589e+01  7.0853e-03  0:03:09 1277
   724  6.3771e-03  6.6371e-03  4.7749e-03  1.1604e+01  6.3570e-03  0:02:31 1276
   725  6.0763e-03  6.5635e-03  4.7338e-03  1.2212e+01  6.0555e-03  0:02:01 1275
   726  6.2396e-03  6.5061e-03  4.6806e-03  1.3133e+01  6.2189e-03  0:01:36 1274

  iter  continuity  x-velocity  y-velocity  z-velocity      energy     time/iter
   727  6.6777e-03  6.5811e-03  4.6314e-03  1.3276e+01  6.6578e-03  0:01:17 1273
   728  7.4196e-03  6.7106e-03  4.6084e-03  1.2922e+01  7.4006e-03  0:01:02 1272
   729  8.2513e-03  6.7876e-03  4.6335e-03  1.2564e+01  8.2331e-03  0:00:49 1271
   730  8.8746e-03  6.9466e-03  4.6721e-03  1.2392e+01  8.8567e-03  0:04:53 1270
   731  9.2054e-03  7.0346e-03  4.7318e-03  1.2315e+01  9.1877e-03  0:03:55 1269
   732  9.1549e-03  7.0394e-03  4.7998e-03  1.2481e+01  9.1371e-03  0:03:07 1268
   733  8.7366e-03  7.0345e-03  4.8479e-03  1.2262e+01  8.7186e-03  0:02:30 1267
   734  8.0577e-03  6.9201e-03  4.8772e-03  1.1949e+01  8.0393e-03  0:02:00 1266
   735  7.1536e-03  6.7623e-03  4.8725e-03  1.1364e+01  7.1345e-03  0:01:36 1265
   736  6.3121e-03  6.5422e-03  4.8515e-03  1.0712e+01  6.2921e-03  0:01:17 1264
   737  6.0494e-03  6.2931e-03  4.8240e-03  1.0511e+01  6.0292e-03  0:01:01 1263

  iter  continuity  x-velocity  y-velocity  z-velocity      energy     time/iter
   738  6.5480e-03  6.0804e-03  4.8088e-03  1.0631e+01  6.5288e-03  0:05:01 1262
   739  7.3701e-03  5.9386e-03  4.8245e-03  1.0916e+01  7.3519e-03  0:04:01 1261
   740  8.0575e-03  5.8572e-03  4.8787e-03  1.1246e+01  8.0399e-03  0:03:13 1260
   741  8.5159e-03  5.8285e-03  4.9591e-03  1.1573e+01  8.4985e-03  0:02:34 1259
   742  8.7986e-03  5.8537e-03  5.0432e-03  1.2086e+01  8.7811e-03  0:02:03 1258
   743  8.9537e-03  5.9044e-03  5.1350e-03  1.2453e+01  8.9360e-03  0:01:38 1257
   744  9.0936e-03  5.9636e-03  5.2275e-03  1.2293e+01  9.0756e-03  0:01:19 1256
   745  9.2913e-03  6.0781e-03  5.3333e-03  1.1814e+01  9.2731e-03  0:01:03 1255
   746  9.5691e-03  6.2700e-03  5.4392e-03  1.1221e+01  9.5508e-03  0:00:50 1254
   747  9.1788e-03  6.5500e-03  5.5421e-03  1.0481e+01  9.1600e-03  0:04:51 1253
   748  8.2567e-03  6.7983e-03  5.6406e-03  9.7002e+00  8.2369e-03  0:03:52 1252

  iter  continuity  x-velocity  y-velocity  z-velocity      energy     time/iter
   749  7.2871e-03  6.9303e-03  5.7130e-03  9.1064e+00  7.2658e-03  0:03:06 1251
   750  6.5082e-03  6.9335e-03  5.7490e-03  8.7823e+00  6.4854e-03  0:02:29 1250
   751  5.9648e-03  6.8341e-03  5.7521e-03  8.9223e+00  5.9407e-03  0:01:59 1249
   752  5.8505e-03  6.7901e-03  5.7041e-03  9.8904e+00  5.8263e-03  0:01:35 1248
   753  6.0979e-03  6.7697e-03  5.6478e-03  1.0619e+01  6.0747e-03  0:01:16 1247
   754  6.7413e-03  6.8993e-03  5.6012e-03  1.0072e+01  6.7196e-03  0:01:01 1246
   755  7.6398e-03  7.0801e-03  5.5813e-03  9.1407e+00  7.6197e-03  0:04:57 1245
   756  8.5762e-03  7.2119e-03  5.6084e-03  8.8925e+00  8.5572e-03  0:03:58 1244
   757  9.1498e-03  7.4126e-03  5.6459e-03  8.6004e+00  9.1314e-03  0:03:10 1243
   758  9.2693e-03  7.5164e-03  5.6929e-03  8.6767e+00  9.2512e-03  0:02:32 1242
   759  8.9532e-03  7.5468e-03  5.7256e-03  8.5307e+00  8.9351e-03  0:02:01 1241

  iter  continuity  x-velocity  y-velocity  z-velocity      energy     time/iter
   760  8.3517e-03  7.5238e-03  5.7212e-03  8.5851e+00  8.3336e-03  0:01:37 1240
   761  7.4873e-03  7.3604e-03  5.6855e-03  8.6053e+00  7.4689e-03  0:01:18 1239
   762  6.5268e-03  7.1521e-03  5.6058e-03  8.5325e+00  6.5079e-03  0:01:02 1238
   763  5.9155e-03  6.8918e-03  5.5132e-03  8.6384e+00  5.8964e-03  0:00:50 1237
   764  6.0561e-03  6.6325e-03  5.4239e-03  8.9775e+00  6.0376e-03  0:04:47 1236
   765  6.8215e-03  6.4385e-03  5.3571e-03  9.4200e+00  6.8043e-03  0:03:49 1235
   766  7.6664e-03  6.3316e-03  5.3275e-03  1.0199e+01  7.6500e-03  0:03:03 1234
   767  8.2352e-03  6.2821e-03  5.3301e-03  1.1052e+01  8.2192e-03  0:02:27 1233
   768  8.5714e-03  6.2649e-03  5.3494e-03  1.1832e+01  8.5555e-03  0:01:57 1232
   769  8.7403e-03  6.2840e-03  5.3626e-03  1.2477e+01  8.7243e-03  0:01:34 1231
   770  8.8274e-03  6.3205e-03  5.3750e-03  1.2609e+01  8.8112e-03  0:01:15 1230

  iter  continuity  x-velocity  y-velocity  z-velocity      energy     time/iter
   771  8.8896e-03  6.3783e-03  5.3876e-03  1.2477e+01  8.8732e-03  0:01:00 1229
   772  9.0679e-03  6.4715e-03  5.4130e-03  1.2299e+01  9.0514e-03  0:00:48 1228
   773  8.7602e-03  6.6468e-03  5.4326e-03  1.2259e+01  8.7434e-03  0:04:44 1227
   774  7.9631e-03  6.8520e-03  5.4485e-03  1.2504e+01  7.9458e-03  0:03:47 1226
   775  7.0896e-03  6.9793e-03  5.4571e-03  1.2990e+01  7.0714e-03  0:03:01 1225
   776  6.3637e-03  7.0192e-03  5.4420e-03  1.4029e+01  6.3445e-03  0:02:25 1224
   777  5.8670e-03  6.9374e-03  5.4000e-03  1.5789e+01  5.8471e-03  0:01:56 1223
   778  5.6463e-03  6.8437e-03  5.3230e-03  1.6834e+01  5.6260e-03  0:01:33 1222
   779  5.7473e-03  6.8002e-03  5.2166e-03  1.7317e+01  5.7275e-03  0:01:14 1221
   780  6.1364e-03  6.7776e-03  5.1175e-03  1.7401e+01  6.1176e-03  0:00:59 1220
   781  6.8562e-03  6.8990e-03  5.0240e-03  1.6889e+01  6.8387e-03  0:00:47 1219

  iter  continuity  x-velocity  y-velocity  z-velocity      energy     time/iter
   782  7.7072e-03  7.0048e-03  4.9744e-03  1.6487e+01  7.6907e-03  0:04:41 1218
   783  8.3629e-03  7.1292e-03  4.9719e-03  1.6360e+01  8.3469e-03  0:03:45 1217
   784  8.6392e-03  7.2678e-03  4.9894e-03  1.6098e+01  8.6235e-03  0:03:00 1216
   785  8.4756e-03  7.3114e-03  5.0135e-03  1.5868e+01  8.4600e-03  0:02:24 1215
   786  7.9598e-03  7.3047e-03  4.9980e-03  1.5395e+01  7.9443e-03  0:01:55 1214
   787  7.1894e-03  7.1615e-03  4.9491e-03  1.4849e+01  7.1739e-03  0:01:32 1213
   788  6.2685e-03  6.9396e-03  4.8508e-03  1.4436e+01  6.2527e-03  0:01:13 1212
   789  5.5755e-03  6.6578e-03  4.7322e-03  1.4417e+01  5.5595e-03  0:00:59 1211
   790  5.5998e-03  6.3554e-03  4.6153e-03  1.4755e+01  5.5843e-03  0:00:47 1210
   791  6.3162e-03  6.1002e-03  4.5213e-03  1.5313e+01  6.3017e-03  0:04:39 1209
   792  7.2328e-03  5.9296e-03  4.4725e-03  1.6388e+01  7.2189e-03  0:03:43 1208

  iter  continuity  x-velocity  y-velocity  z-velocity      energy     time/iter
   793  7.9247e-03  5.8445e-03  4.4665e-03  1.7540e+01  7.9111e-03  0:02:58 1207
   794  8.2834e-03  5.7890e-03  4.4937e-03  1.8460e+01  8.2699e-03  0:02:23 1206
   795  8.4347e-03  5.7801e-03  4.5265e-03  1.9409e+01  8.4212e-03  0:01:54 1205
   796  8.4563e-03  5.8082e-03  4.5584e-03  2.0056e+01  8.4426e-03  0:01:31 1204
   797  8.3736e-03  5.8697e-03  4.5930e-03  1.9554e+01  8.3597e-03  0:01:13 1203
   798  8.4462e-03  5.9519e-03  4.6384e-03  1.8382e+01  8.4321e-03  0:00:58 1202
   799  8.2064e-03  6.0927e-03  4.6904e-03  1.7059e+01  8.1922e-03  0:00:47 1201
   800  7.3851e-03  6.2577e-03  4.7261e-03  1.5720e+01  7.3706e-03  0:04:37 1200
   801  6.4100e-03  6.3743e-03  4.7473e-03  1.4846e+01  6.3949e-03  0:03:42 1199
   802  5.6270e-03  6.4102e-03  4.7549e-03  1.4556e+01  5.6111e-03  0:02:57 1198
   803  5.1494e-03  6.3788e-03  4.7399e-03  1.5677e+01  5.1327e-03  0:02:22 1197

  iter  continuity  x-velocity  y-velocity  z-velocity      energy     time/iter
   804  5.0977e-03  6.2929e-03  4.7012e-03  1.7018e+01  5.0810e-03  0:01:53 1196
   805  5.3812e-03  6.2820e-03  4.6382e-03  1.7465e+01  5.3652e-03  0:01:30 1195
   806  5.8389e-03  6.2618e-03  4.5688e-03  1.8228e+01  5.8238e-03  0:01:12 1194
   807  6.5238e-03  6.3232e-03  4.4988e-03  1.8366e+01  6.5095e-03  0:00:58 1193
   808  7.2694e-03  6.4594e-03  4.4428e-03  1.8200e+01  7.2558e-03  0:00:46 1192
   809  7.8602e-03  6.5314e-03  4.4462e-03  1.7736e+01  7.8468e-03  0:04:35 1191
[...]
  1791  4.1763e-03  6.7441e-03  7.2276e-03  2.8113e+03  4.1130e-03  0:00:14  209
  1792  4.1448e-03  6.7253e-03  7.2045e-03  2.6969e+03  4.0795e-03  0:00:11  208
  1793  4.1220e-03  6.7032e-03  7.1911e-03  2.6241e+03  4.0550e-03  0:00:09  207

  iter  continuity  x-velocity  y-velocity  z-velocity      energy     time/iter
  1794  4.0008e-03  6.6756e-03  7.1861e-03  2.6047e+03  3.9302e-03  0:00:07  206
  1795  3.8421e-03  6.6471e-03  7.1834e-03  2.6439e+03  3.7671e-03  0:00:06  205
  1796  3.6653e-03  6.5940e-03  7.1927e-03  2.7173e+03  3.5852e-03  0:00:05  204
  1797  3.5286e-03  6.5364e-03  7.2159e-03  2.7798e+03  3.4439e-03  0:00:04  203
  1798  3.5018e-03  6.4714e-03  7.2538e-03  2.8109e+03  3.4152e-03  0:00:03  202
  1799  3.5883e-03  6.4059e-03  7.3003e-03  2.8075e+03  3.5027e-03  0:00:43  201
  1800  3.7011e-03  6.3424e-03  7.3563e-03  2.7698e+03  3.6171e-03  0:00:34  200
  1801  3.8008e-03  6.2981e-03  7.4269e-03  2.6949e+03  3.7181e-03  0:00:27  199
  1802  3.8034e-03  6.2461e-03  7.5129e-03  2.6013e+03  3.7199e-03  0:00:21  198
  1803  3.7075e-03  6.1993e-03  7.6142e-03  2.5072e+03  3.6210e-03  0:00:17  197
  1804  3.5642e-03  6.1611e-03  7.7339e-03  2.4142e+03  3.4734e-03  0:00:14  196

  iter  continuity  x-velocity  y-velocity  z-velocity      energy     time/iter
  1805  3.4030e-03  6.1315e-03  7.8549e-03  2.3189e+03  3.3073e-03  0:00:11  195
  1806  3.2384e-03  6.1193e-03  7.9889e-03  2.2307e+03  3.1372e-03  0:00:09  194
  1807  3.0682e-03  6.1122e-03  8.1316e-03  2.1423e+03  2.9610e-03  0:00:07  193
  1808  2.8945e-03  6.1138e-03  8.2795e-03  2.0566e+03  2.7808e-03  0:00:05  192
  1809  2.7386e-03  6.1297e-03  8.4315e-03  1.9752e+03  2.6184e-03  0:00:04  191
  1810  2.6114e-03  6.1490e-03  8.5862e-03  1.9049e+03  2.4856e-03  0:00:03  190
  1811  2.5094e-03  6.1765e-03  8.7413e-03  1.8416e+03  2.3790e-03  0:00:03  189
  1812  2.4264e-03  6.2092e-03  8.8947e-03  1.7853e+03  2.2925e-03  0:00:40  188
  1813  2.3528e-03  6.2494e-03  9.0439e-03  1.7385e+03  2.2157e-03  0:00:32  187
  1814  2.2786e-03  6.2972e-03  9.1871e-03  1.7047e+03  2.1383e-03  0:00:25  186
  1815  2.2127e-03  6.3873e-03  9.3254e-03  1.6778e+03  2.0699e-03  0:00:20  185

  iter  continuity  x-velocity  y-velocity  z-velocity      energy     time/iter
  1816  2.1565e-03  6.4246e-03  9.4530e-03  1.6568e+03  2.0118e-03  0:00:16  184
  1817  2.1101e-03  6.4782e-03  9.5718e-03  1.6466e+03  1.9642e-03  0:00:13  183
  1818  2.0637e-03  6.5390e-03  9.6805e-03  1.6411e+03  1.9167e-03  0:00:10  182
  1819  2.0231e-03  6.6005e-03  9.7781e-03  1.6330e+03  1.8753e-03  0:00:08  181
  1820  2.0176e-03  6.6648e-03  9.8635e-03  1.6285e+03  1.8717e-03  0:00:06  180
  1821  2.0235e-03  6.7325e-03  9.9357e-03  1.6320e+03  1.8803e-03  0:00:05  179
  1822  2.0233e-03  6.8030e-03  9.9940e-03  1.6248e+03  1.8823e-03  0:00:04  178
  1823  2.0296e-03  6.8758e-03  1.0038e-02  1.6022e+03  1.8911e-03  0:00:03  177
  1824  2.0438e-03  6.9509e-03  1.0067e-02  1.5779e+03  1.9082e-03  0:00:03  176
  1825  2.0358e-03  7.0284e-03  1.0080e-02  1.5472e+03  1.9014e-03  0:00:02  175
  1826  2.0192e-03  7.1060e-03  1.0078e-02  1.5120e+03  1.8851e-03  0:00:36  174

  iter  continuity  x-velocity  y-velocity  z-velocity      energy     time/iter
  1827  2.0023e-03  7.1817e-03  1.0058e-02  1.4777e+03  1.8683e-03  0:00:29  173
  1828  1.9980e-03  7.2568e-03  1.0021e-02  1.4478e+03  1.8648e-03  0:00:23  172
  1829  2.0022e-03  7.3308e-03  9.9675e-03  1.4268e+03  1.8702e-03  0:00:18  171
  1830  2.0154e-03  7.4018e-03  9.8990e-03  1.4094e+03  1.8850e-03  0:00:15  170
  1831  2.0273e-03  7.4693e-03  9.8167e-03  1.4031e+03  1.8983e-03  0:00:12  169
  1832  2.0463e-03  7.5311e-03  9.7217e-03  1.4031e+03  1.9190e-03  0:00:09  168
  1833  2.0645e-03  7.5860e-03  9.6148e-03  1.4084e+03  1.9388e-03  0:00:07  167
  1834  2.0812e-03  7.6350e-03  9.4969e-03  1.4209e+03  1.9569e-03  0:00:06  166
  1835  2.0845e-03  7.6786e-03  9.3691e-03  1.4359e+03  1.9608e-03  0:00:05  165
  1836  2.0951e-03  7.7177e-03  9.2330e-03  1.4553e+03  1.9724e-03  0:00:04  164
  1837  2.1162e-03  7.7512e-03  9.0900e-03  1.4795e+03  1.9953e-03  0:00:03  163

  iter  continuity  x-velocity  y-velocity  z-velocity      energy     time/iter
  1838  2.1479e-03  7.7779e-03  8.9420e-03  1.5022e+03  2.0294e-03  0:00:02  162
  1839  2.1764e-03  7.7974e-03  8.7909e-03  1.5126e+03  2.0602e-03  0:00:02  161
  1840  2.2147e-03  7.8104e-03  8.6379e-03  1.5187e+03  2.1014e-03  0:00:33  160
  1841  2.2606e-03  7.8157e-03  8.4853e-03  1.5236e+03  2.1505e-03  0:00:27  159
  1842  2.2915e-03  7.8114e-03  8.3356e-03  1.5182e+03  2.1840e-03  0:00:21  158
  1843  2.2979e-03  7.7913e-03  8.1933e-03  1.5068e+03  2.1919e-03  0:00:17  157
  1844  2.2746e-03  7.7676e-03  8.0549e-03  1.4929e+03  2.1687e-03  0:00:13  156
  1845  2.2260e-03  7.7406e-03  7.9218e-03  1.4743e+03  2.1193e-03  0:00:11  155
  1846  2.1690e-03  7.7096e-03  7.7960e-03  1.4580e+03  2.0611e-03  0:00:08  154
  1847  2.1339e-03  7.6743e-03  7.6794e-03  1.4494e+03  2.0261e-03  0:00:07  153
  1848  2.1114e-03  7.6342e-03  7.5736e-03  1.4606e+03  2.0045e-03  0:00:05  152

  iter  continuity  x-velocity  y-velocity  z-velocity      energy     time/iter
  1849  2.0740e-03  7.5898e-03  7.4799e-03  1.4793e+03  1.9675e-03  0:00:04  151
  1850  2.0294e-03  7.5399e-03  7.3983e-03  1.4946e+03  1.9230e-03  0:00:03  150
  1851  1.9857e-03  7.4811e-03  7.3250e-03  1.5103e+03  1.8798e-03  0:00:03  149
  1852  1.9364e-03  7.4130e-03  7.2618e-03  1.5224e+03  1.8306e-03  0:00:02  148
  1853  1.9008e-03  7.3404e-03  7.2130e-03  1.5330e+03  1.7961e-03  0:00:02  147
  1854  1.8724e-03  7.2669e-03  7.1775e-03  1.5382e+03  1.7692e-03  0:00:31  146
  1855  1.8706e-03  7.1925e-03  7.1443e-03  1.5414e+03  1.7705e-03  0:00:24  145
  1856  1.8737e-03  7.1222e-03  7.1229e-03  1.5383e+03  1.7772e-03  0:00:19  144
  1857  1.8617e-03  7.0560e-03  7.1121e-03  1.5347e+03  1.7678e-03  0:00:15  143
  1858  1.8321e-03  6.9955e-03  7.1086e-03  1.5335e+03  1.7399e-03  0:00:12  142
  1859  1.8004e-03  6.9412e-03  7.1100e-03  1.5338e+03  1.7100e-03  0:00:10  141

  iter  continuity  x-velocity  y-velocity  z-velocity      energy     time/iter
  1860  1.7777e-03  6.8977e-03  7.1135e-03  1.5353e+03  1.6896e-03  0:00:08  140
  1861  1.7645e-03  6.8602e-03  7.1181e-03  1.5420e+03  1.6792e-03  0:00:06  139
  1862  1.7614e-03  6.8262e-03  7.1228e-03  1.5543e+03  1.6793e-03  0:00:05  138
  1863  1.7727e-03  6.7969e-03  7.1263e-03  1.5677e+03  1.6945e-03  0:00:04  137
  1864  1.8186e-03  6.7739e-03  7.1269e-03  1.5902e+03  1.7456e-03  0:00:03  136
  1865  1.8845e-03  6.7589e-03  7.1235e-03  1.6261e+03  1.8170e-03  0:00:02  135
  1866  1.9736e-03  6.7537e-03  7.1149e-03  1.6748e+03  1.9119e-03  0:00:02  134
  1867  2.0653e-03  6.7584e-03  7.0999e-03  1.7332e+03  2.0090e-03  0:00:02  133
  1868  2.1639e-03  6.7732e-03  7.0780e-03  1.8016e+03  2.1124e-03  0:00:28  132
  1869  2.2794e-03  6.7982e-03  7.0485e-03  1.8799e+03  2.2326e-03  0:00:22  131
  1870  2.4276e-03  6.8337e-03  7.0110e-03  1.9731e+03  2.3855e-03  0:00:17  130

  iter  continuity  x-velocity  y-velocity  z-velocity      energy     time/iter
  1871  2.5927e-03  6.8793e-03  6.9650e-03  2.0786e+03  2.5549e-03  0:00:14  129
  1872  2.7620e-03  6.9329e-03  6.9104e-03  2.1918e+03  2.7280e-03  0:00:11  128
  1873  2.9346e-03  6.9945e-03  6.8469e-03  2.3079e+03  2.9039e-03  0:00:09  127
  1874  3.1019e-03  7.0613e-03  6.7744e-03  2.4254e+03  3.0739e-03  0:00:07  126
  1875  3.2643e-03  7.1292e-03  6.6929e-03  2.5435e+03  3.2387e-03  0:00:05  125
  1876  3.4132e-03  7.1973e-03  6.6025e-03  2.6503e+03  3.3896e-03  0:00:04  124
  1877  3.5608e-03  7.2652e-03  6.5038e-03  2.7572e+03  3.5390e-03  0:00:03  123
  1878  3.7184e-03  7.3363e-03  6.3970e-03  2.8694e+03  3.6983e-03  0:00:03  122
  1879  3.8853e-03  7.4032e-03  6.2827e-03  2.9810e+03  3.8667e-03  0:00:02  121
  1880  4.0638e-03  7.4683e-03  6.1617e-03  3.0961e+03  4.0466e-03  0:00:26  120
  1881  4.2562e-03  7.5354e-03  6.0348e-03  3.2155e+03  4.2402e-03  0:00:20  119

  iter  continuity  x-velocity  y-velocity  z-velocity      energy     time/iter
  1882  4.4516e-03  7.5920e-03  5.9038e-03  3.3305e+03  4.4369e-03  0:00:16  118
  1883  4.6494e-03  7.6488e-03  5.7691e-03  3.4383e+03  4.6358e-03  0:00:13  117
  1884  4.8357e-03  7.7047e-03  5.6318e-03  3.5368e+03  4.8230e-03  0:00:10  116
  1885  5.0039e-03  7.7511e-03  5.4919e-03  3.6184e+03  4.9921e-03  0:00:08  115
  1886  5.1578e-03  7.7897e-03  5.3518e-03  3.6841e+03  5.1469e-03  0:00:06  114
  1887  5.2982e-03  7.8229e-03  5.2124e-03  3.7420e+03  5.2880e-03  0:00:05  113
  1888  5.4363e-03  7.8603e-03  5.0727e-03  3.7973e+03  5.4269e-03  0:00:04  112
  1889  5.5581e-03  7.8908e-03  4.9347e-03  3.8515e+03  5.5494e-03  0:00:03  111
  1890  5.6650e-03  7.9163e-03  4.8003e-03  3.9032e+03  5.6569e-03  0:00:03  110
  1891  5.7676e-03  7.9359e-03  4.6690e-03  3.9485e+03  5.7602e-03  0:00:02  109
  1892  5.8951e-03  7.9481e-03  4.5415e-03  3.9860e+03  5.8882e-03  0:00:02  108

  iter  continuity  x-velocity  y-velocity  z-velocity      energy     time/iter
  1893  6.0461e-03  7.9651e-03  4.4191e-03  4.0234e+03  6.0398e-03  0:00:23  107
  1894  6.1694e-03  7.9973e-03  4.3045e-03  4.0577e+03  6.1637e-03  0:00:18  106
  1895  6.2370e-03  8.0158e-03  4.1950e-03  4.0680e+03  6.2318e-03  0:00:14  105
  1896  6.3111e-03  8.0314e-03  4.0908e-03  4.0715e+03  6.3065e-03  0:00:11  104
  1897  6.3889e-03  8.0465e-03  3.9952e-03  4.0518e+03  6.3847e-03  0:00:09  103
  1898  6.4666e-03  8.0644e-03  3.9123e-03  4.0212e+03  6.4628e-03  0:00:07  102
  1899  6.5449e-03  8.1013e-03  3.8353e-03  3.9842e+03  6.5414e-03  0:00:06  101
  1900  6.6447e-03  8.1677e-03  3.7682e-03  3.9439e+03  6.6413e-03  0:00:04  100
  1901  6.7752e-03  8.2345e-03  3.7098e-03  3.8926e+03  6.7719e-03  0:00:04   99
  1902  6.9396e-03  8.2927e-03  3.6578e-03  3.8370e+03  6.9361e-03  0:00:03   98
  1903  7.0823e-03  8.3920e-03  3.6078e-03  3.7683e+03  7.0785e-03  0:00:02   97

  iter  continuity  x-velocity  y-velocity  z-velocity      energy     time/iter
  1904  7.2257e-03  8.4642e-03  3.5639e-03  3.6921e+03  7.2215e-03  0:00:02   96
  1905  7.3875e-03  8.5204e-03  3.5276e-03  3.6225e+03  7.3827e-03  0:00:01   95
  1906  7.5604e-03  8.5866e-03  3.4978e-03  3.5917e+03  7.5548e-03  0:00:01   94
  1907  7.6747e-03  8.6840e-03  3.4736e-03  3.5657e+03  7.6680e-03  0:00:19   93
  1908  7.7617e-03  8.7646e-03  3.4651e-03  3.5465e+03  7.7537e-03  0:00:15   92
  1909  7.8139e-03  8.8396e-03  3.4702e-03  3.5442e+03  7.8044e-03  0:00:12   91
  1910  7.7895e-03  8.9273e-03  3.4927e-03  3.5623e+03  7.7782e-03  0:00:10   90
  1911  7.6616e-03  9.0356e-03  3.5388e-03  3.5400e+03  7.6482e-03  0:00:08   89
  1912  7.5072e-03  9.1095e-03  3.6067e-03  3.5134e+03  7.4914e-03  0:00:06   88
  1913  7.3778e-03  9.1981e-03  3.6939e-03  3.5024e+03  7.3593e-03  0:00:05   87
  1914  7.1875e-03  9.2859e-03  3.8088e-03  3.5047e+03  7.1657e-03  0:00:04   86

  iter  continuity  x-velocity  y-velocity  z-velocity      energy     time/iter
  1915  6.9248e-03  9.3512e-03  3.9512e-03  3.4651e+03  6.8991e-03  0:00:03   85
  1916  6.6991e-03  9.4030e-03  4.1235e-03  3.3814e+03  6.6691e-03  0:00:02   84
  1917  6.5818e-03  9.4611e-03  4.3156e-03  3.3468e+03  6.5472e-03  0:00:02   83
  1918  6.5255e-03  9.5264e-03  4.5356e-03  3.3132e+03  6.4861e-03  0:00:01   82
  1919  6.4990e-03  9.6177e-03  4.7969e-03  3.3236e+03  6.4545e-03  0:00:01   81
  1920  6.4810e-03  9.7185e-03  5.0893e-03  3.3997e+03  6.4313e-03  0:00:17   80
  1921  6.4629e-03  9.8362e-03  5.4101e-03  3.4647e+03  6.4076e-03  0:00:13   79
  1922  6.4726e-03  9.9435e-03  5.7556e-03  3.5415e+03  6.4115e-03  0:00:11   78
  1923  6.5073e-03  1.0058e-02  6.1287e-03  3.5924e+03  6.4404e-03  0:00:08   77
  1924  6.5455e-03  1.0178e-02  6.5260e-03  3.6920e+03  6.4727e-03  0:00:07   76
  1925  6.5707e-03  1.0305e-02  6.9438e-03  3.7399e+03  6.4918e-03  0:00:05   75

  iter  continuity  x-velocity  y-velocity  z-velocity      energy     time/iter
  1926  6.5365e-03  1.0408e-02  7.3785e-03  3.8273e+03  6.4509e-03  0:00:04   74
  1927  6.4446e-03  1.0512e-02  7.8315e-03  3.9093e+03  6.3516e-03  0:00:03   73
  1928  6.3280e-03  1.0618e-02  8.3000e-03  3.9653e+03  6.2268e-03  0:00:03   72
  1929  6.1693e-03  1.0729e-02  8.7830e-03  4.0325e+03  6.0593e-03  0:00:02   71
  1930  5.9694e-03  1.0852e-02  9.2760e-03  4.1276e+03  5.8496e-03  0:00:02   70
  1931  5.7550e-03  1.0983e-02  9.7747e-03  4.2225e+03  5.6247e-03  0:00:01   69
  1932  5.5992e-03  1.1128e-02  1.0274e-02  4.3359e+03  5.4594e-03  0:00:01   68
  1933  5.4904e-03  1.1278e-02  1.0771e-02  4.4233e+03  5.3422e-03  0:00:01   67
  1934  5.4354e-03  1.1409e-02  1.1269e-02  4.5007e+03  5.2806e-03  0:00:14   66
  1935  5.4258e-03  1.1520e-02  1.1761e-02  4.5521e+03  5.2662e-03  0:00:11   65
  1936  5.4657e-03  1.1625e-02  1.2244e-02  4.5669e+03  5.3033e-03  0:00:09   64

  iter  continuity  x-velocity  y-velocity  z-velocity      energy     time/iter
  1937  5.5376e-03  1.1717e-02  1.2718e-02  4.5767e+03  5.3741e-03  0:00:07   63
  1938  5.6565e-03  1.1797e-02  1.3179e-02  4.5634e+03  5.4938e-03  0:00:05   62
  1939  5.8034e-03  1.1861e-02  1.3626e-02  4.5535e+03  5.6428e-03  0:00:04   61
  1940  5.9417e-03  1.1912e-02  1.4059e-02  4.5459e+03  5.7836e-03  0:00:03   60
  1941  6.0414e-03  1.1948e-02  1.4475e-02  4.5323e+03  5.8852e-03  0:00:03   59
  1942  6.0800e-03  1.1972e-02  1.4874e-02  4.5267e+03  5.9247e-03  0:00:02   58
  1943  6.0379e-03  1.1988e-02  1.5254e-02  4.5333e+03  5.8820e-03  0:00:02   57
  1944  5.9527e-03  1.2015e-02  1.5614e-02  4.5270e+03  5.7957e-03  0:00:01   56
  1945  5.8764e-03  1.2049e-02  1.5953e-02  4.5281e+03  5.7186e-03  0:00:01   55
  1946  5.8705e-03  1.2105e-02  1.6273e-02  4.5341e+03  5.7141e-03  0:00:01   54
  1947  5.9443e-03  1.2195e-02  1.6568e-02  4.5553e+03  5.7913e-03  0:00:01   53

  iter  continuity  x-velocity  y-velocity  z-velocity      energy     time/iter
  1948  6.0490e-03  1.2323e-02  1.6832e-02  4.5869e+03  5.9002e-03  0:00:11   52
  1949  6.1851e-03  1.2457e-02  1.7076e-02  4.6219e+03  6.0409e-03  0:00:09   51
  1950  6.2548e-03  1.2568e-02  1.7293e-02  4.6502e+03  6.1135e-03  0:00:07   50
  1951  6.2183e-03  1.2677e-02  1.7481e-02  4.6632e+03  6.0775e-03  0:00:05   49
  1952  6.1201e-03  1.2785e-02  1.7632e-02  4.6557e+03  5.9785e-03  0:00:04   48
  1953  5.9971e-03  1.2892e-02  1.7747e-02  4.6358e+03  5.8538e-03  0:00:03   47
  1954  5.8853e-03  1.3005e-02  1.7824e-02  4.6083e+03  5.7404e-03  0:00:03   46
  1955  5.8270e-03  1.3119e-02  1.7865e-02  4.5839e+03  5.6814e-03  0:00:02   45
  1956  5.8224e-03  1.3231e-02  1.7868e-02  4.5625e+03  5.6773e-03  0:00:02   44
  1957  5.8377e-03  1.3343e-02  1.7840e-02  4.5445e+03  5.6933e-03  0:00:01   43
  1958  5.8805e-03  1.3455e-02  1.7778e-02  4.5308e+03  5.7372e-03  0:00:01   42

  iter  continuity  x-velocity  y-velocity  z-velocity      energy     time/iter
  1959  6.0041e-03  1.3577e-02  1.7685e-02  4.5306e+03  5.8638e-03  0:00:01   41
  1960  6.1724e-03  1.3703e-02  1.7565e-02  4.5463e+03  6.0357e-03  0:00:01   40
  1961  6.3463e-03  1.3838e-02  1.7421e-02  4.5761e+03  6.2132e-03  0:00:00   39
  1962  6.4804e-03  1.3972e-02  1.7251e-02  4.6154e+03  6.3500e-03  0:00:08   38
  1963  6.5542e-03  1.4097e-02  1.7059e-02  4.6533e+03  6.4255e-03  0:00:06   37
  1964  6.5361e-03  1.4219e-02  1.6853e-02  4.6940e+03  6.4076e-03  0:00:05   36
  1965  6.4180e-03  1.4313e-02  1.6624e-02  4.7440e+03  6.2879e-03  0:00:04   35
  1966  6.2333e-03  1.4390e-02  1.6381e-02  4.8247e+03  6.1005e-03  0:00:03   34
  1967  6.0218e-03  1.4453e-02  1.6129e-02  4.9497e+03  5.8857e-03  0:00:02   33
  1968  5.8132e-03  1.4505e-02  1.5872e-02  5.1012e+03  5.6738e-03  0:00:02   32
  1969  5.6430e-03  1.4536e-02  1.5612e-02  5.2773e+03  5.5010e-03  0:00:01   31

  iter  continuity  x-velocity  y-velocity  z-velocity      energy     time/iter
  1970  5.5311e-03  1.4564e-02  1.5353e-02  5.4731e+03  5.3881e-03  0:00:01   30
  1971  5.4092e-03  1.4591e-02  1.5100e-02  5.6878e+03  5.2651e-03  0:00:01   29
  1972  5.3197e-03  1.4627e-02  1.4856e-02  5.8952e+03  5.1755e-03  0:00:01   28
  1973  5.2898e-03  1.4650e-02  1.4625e-02  6.0985e+03  5.1473e-03  0:00:06   27
  1974  5.2238e-03  1.4651e-02  1.4413e-02  6.2727e+03  5.0822e-03  0:00:05   26
  1975  5.1563e-03  1.4640e-02  1.4221e-02  6.4073e+03  5.0158e-03  0:00:03   25
  1976  5.0699e-03  1.4634e-02  1.4051e-02  6.4911e+03  4.9302e-03  0:00:03   24
  1977  5.0075e-03  1.4625e-02  1.3906e-02  6.5186e+03  4.8691e-03  0:00:02   23
  1978  4.9593e-03  1.4617e-02  1.3794e-02  6.4971e+03  4.8229e-03  0:00:02   22
  1979  4.9223e-03  1.4605e-02  1.3710e-02  6.4509e+03  4.7882e-03  0:00:01   21
  1980  4.8881e-03  1.4582e-02  1.3651e-02  6.3939e+03  4.7565e-03  0:00:01   20

  iter  continuity  x-velocity  y-velocity  z-velocity      energy     time/iter
  1981  4.8716e-03  1.4566e-02  1.3615e-02  6.3217e+03  4.7429e-03  0:00:01   19
  1982  4.8546e-03  1.4581e-02  1.3600e-02  6.2232e+03  4.7288e-03  0:00:01   18
  1983  4.8668e-03  1.4604e-02  1.3604e-02  6.1195e+03  4.7446e-03  0:00:00   17
  1984  4.9054e-03  1.4584e-02  1.3624e-02  6.0182e+03  4.7869e-03  0:00:00   16
  1985  4.9431e-03  1.4514e-02  1.3663e-02  5.9252e+03  4.8279e-03  0:00:00   15
  1986  5.0036e-03  1.4380e-02  1.3712e-02  5.8400e+03  4.8917e-03  0:00:03   14
  1987  5.0731e-03  1.4215e-02  1.3769e-02  5.7701e+03  4.9643e-03  0:00:02   13
  1988  5.0906e-03  1.4072e-02  1.3829e-02  5.7040e+03  4.9835e-03  0:00:02   12
  1989  5.0836e-03  1.3963e-02  1.3893e-02  5.6368e+03  4.9772e-03  0:00:01   11
  1990  5.0693e-03  1.3884e-02  1.3959e-02  5.5532e+03  4.9630e-03  0:00:01   10
  1991  4.9700e-03  1.3857e-02  1.4024e-02  5.4624e+03  4.8616e-03  0:00:01    9

  iter  continuity  x-velocity  y-velocity  z-velocity      energy     time/iter
  1992  4.8919e-03  1.3812e-02  1.4093e-02  5.3809e+03  4.7813e-03  0:00:00    8
  1993  4.8556e-03  1.3752e-02  1.4158e-02  5.3136e+03  4.7430e-03  0:00:00    7
  1994  4.8714e-03  1.3705e-02  1.4216e-02  5.2556e+03  4.7576e-03  0:00:00    6
  1995  4.9611e-03  1.3677e-02  1.4265e-02  5.1870e+03  4.8475e-03  0:00:00    5
  1996  5.0584e-03  1.3685e-02  1.4297e-02  5.1315e+03  4.9449e-03  0:00:00    4
  1997  5.1813e-03  1.3708e-02  1.4312e-02  5.0458e+03  5.0682e-03  0:00:00    3
  1998  5.3810e-03  1.3749e-02  1.4306e-02  4.9692e+03  5.2699e-03  0:00:00    2
  1999  5.5918e-03  1.3809e-02  1.4279e-02  4.9383e+03  5.4826e-03  0:00:00    1
  2000  5.6472e-03  1.3855e-02  1.4231e-02  4.9278e+03  5.5370e-03  0:00:00    0

> 
adjoint/                parallel/               server/
define/                 parametric-study/       solve/
display/                plot/                   surface/
exit                    preferences/            turbo-workflow/
file/                   print-license-usage     views/
mesh/                   report/

> /file/write-case-data project1
Fast-loading "C:\PROGRA~1\ANSYSI~1\v231\fluent\fluent23.1.0\\addons\afd\lib\hdfio.bin"
Done.

Writing to Engs-30669:"C:\Users\kebl7595\Desktop\CFD\Runs\Actual Data\30 degree\project1.cas.h5" in NODE0 mode and compression level 1 ...
       12996 cells,     1 zone  ...
       43722 faces,     8 zones ...
       17864 nodes,     1 zone  ...
  Done.
Done.

Writing to Engs-30669:"C:\Users\kebl7595\Desktop\CFD\Runs\Actual Data\30 degree\project1.dat.h5" in NODE0 mode and compression level 1 ...
  Writing results.
Done.

> /file/export/ascii "./surface.dat" wing te () no pressure mach-number quit no

Writing "./surface.dat"...

Writing information to ascii file ...
Done.


> /plot/plot y "data.dat" no n n pressure-coefficient no n x-coordinate wing ()

> /report/forces/wall-forces y -0.5 0.86603 0 y "Force"

> /exit

Posting ANSYS Product Improvement Program performance data 
Done.
Auto-Transcript Stop Time:  15:16:56, 20 May 2024 GMT Daylight Time 
Total Transcript Time: 3 Minute 0 Second.
