Auto-Transcript Start Time:  14:40:19, 20 May 2024 GMT Daylight Time 
Current Directory: "C:\Users\kebl7595\Desktop\CFD\Runs\Actual Data\15 degrees"

              Welcome to ANSYS Fluent 2023 R1

              Copyright 1987-2023 ANSYS, Inc. All Rights Reserved.
              Unauthorized use, distribution or duplication is prohibited.
              This product is subject to U.S. laws governing export and re-export.
              For full Legal Notice, see documentation.

Build Time: Nov 28 2022 09:52:02 EST  Build Id: 10208  
 
Connected License Server List:	1055@ansyslic.eng.ox.ac.uk

*********************************************
Info: Your license enables 4-way parallel execution.
For faster simulations, please start the application with the appropriate parallel options.
*********************************************


     --------------------------------------------------------------
     This is an academic version of ANSYS FLUENT. Usage of this product
     license is limited to the terms and conditions specified in your ANSYS
     license form, additional terms section.
     --------------------------------------------------------------
Host spawning Node 0 on machine "Engs-30669" (win64).

------------------------------------------------------------------------------------
ID    Hostname    Core  O.S.         PID    Vendor                                 
------------------------------------------------------------------------------------
n0    Engs-30669  1/32  Windows-x64  29052  13th Gen Intel(R) Core(TM) i9-13900    
host  Engs-30669        Windows-x64  18548  13th Gen Intel(R) Core(TM) i9-13900    

MPI Option Selected: intel
------------------------------------------------------------------------------------

Cleanup script file is C:\\Users\\kebl7595\\Desktop\\CFD\\Runs\\Actual Data\\15 degrees\\cleanup-fluent-Engs-30669-18548.bat
QA Service Message :
QA Services Agreement Enabled. This application is included in the scope of an ANSYS QA Services Agreement.
Posting ANSYS Product Improvement Program startup data
Done.

Reading journal file C:/Users/kebl7595/Desktop/CFD/Runs/Actual Data/15 degrees/project1.jou...

> /file/set-batch-options no no no 

> 
define/                 parametric-study/       solve/
display/                plot/                   surface/
exit                    preferences/            switch-to-meshing-mode
file/                   print-license-usage     turbo-workflow/
mesh/                   report/                 views/
parallel/               server/

> /file/import/cgns/mesh  "./project1.cgns"
Engs-30669 has other FLUENT parallel processes running.                       Process affinity not being set.

Importing "./project1.cgns"

Opening library "C:\\PROGRA~1\\ANSYSI~1\\v231\\fluent\\fluent23.1.0\\vki\\win64\\devtools4.4.6.dll"... done.

Read    17864 nodes
   12996 hexahedral cells, zone  1
    9462 quadrilateral wall faces, zone  2.
   33972 quadrilateral interior faces, zone  3.
     282 quadrilateral interface faces, zone  4.
       6 quadrilateral wall faces, zone  5.

Building...
     mesh
     materials,
     interface,
     domains,
     zones,
	default_exterior-1
	interface-default_subface
	default_interior-1
	default_subface
	default
     parallel,
The automatic selection for flux type has changed to Rhie-Chow: momentum based.

Done.


> 
adjoint/                parallel/               server/
define/                 parametric-study/       solve/
display/                plot/                   surface/
exit                    preferences/            turbo-workflow/
file/                   print-license-usage     views/
mesh/                   report/

> /define/models/solver/density-based-implicit yes

> 
adjoint/                parallel/               server/
define/                 parametric-study/       solve/
display/                plot/                   surface/
exit                    preferences/            turbo-workflow/
file/                   print-license-usage     views/
mesh/                   report/

> /define/models/energy? yes yes invalid command [yes]
yes

> /define/models/viscous/inviscid yes

> 
adjoint/                parallel/               server/
define/                 parametric-study/       solve/
display/                plot/                   surface/
exit                    preferences/            turbo-workflow/
file/                   print-license-usage     views/
mesh/                   report/

> /define/materials/change-create air air air is a fluid
yes 
Density
ideal-gas no data required.

no no no no 

> 
adjoint/                parallel/               server/
define/                 parametric-study/       solve/
display/                plot/                   surface/
exit                    preferences/            turbo-workflow/
file/                   print-license-usage     views/
mesh/                   report/

> /mesh/modify-zones/sep-face-zone-angle 2 90 yes

 4332 faces in contiguous region 0
 228 faces in contiguous region 1
 342 faces in contiguous region 2
 4332 faces in contiguous region 3
 228 faces in contiguous region 4
 Separates zone 2 into 5 zone(s).
Updating new zone information...
   created new zone default_subface:010 from default_subface
   created new zone default_subface:009 from default_subface
   created new zone default_subface:008 from default_subface
   created new zone default_subface:007 from default_subface
done.

> 
adjoint/                parallel/               server/
define/                 parametric-study/       solve/
display/                plot/                   surface/
exit                    preferences/            turbo-workflow/
file/                   print-license-usage     views/
mesh/                   report/

> /define/boundary-conditions/zone-name  5   te

> /define/boundary-conditions/zone-name  7 wing

> /define/boundary-conditions/zone-name  2 sym1

> /define/boundary-conditions/zone-name  9 sym2

> 
adjoint/                parallel/               server/
define/                 parametric-study/       solve/
display/                plot/                   surface/
exit                    preferences/            turbo-workflow/
file/                   print-license-usage     views/
mesh/                   report/

> /define/boundary-conditions/zone-name  8 far1

> /define/boundary-conditions/zone-name 10 far2

> 
adjoint/                parallel/               server/
define/                 parametric-study/       solve/
display/                plot/                   surface/
exit                    preferences/            turbo-workflow/
file/                   print-license-usage     views/
mesh/                   report/

> /define/boundary-conditions/zone-type  8 pressure-far-field

> /define/boundary-conditions/zone-type 10 pressure-far-field

> /define/boundary-conditions/zone-type  2 symmetry

> /define/boundary-conditions/zone-type  9 symmetry

> 
adjoint/                parallel/               server/
define/                 parametric-study/       solve/
display/                plot/                   surface/
exit                    preferences/            turbo-workflow/
file/                   print-license-usage     views/
mesh/                   report/

> /define/boundary-conditions/pressure-far-field (far2 far1)
far1 no 0 no 0.1 no 300 yes no 0.96593 no 0.25882 no 0

> /define/boundary-conditions/pressure-far-field (far2 far1)
far2 no 0 no 0.1 no 300 yes no 0.96593 no 0.25882 no 0

> 
adjoint/                parallel/               server/
define/                 parametric-study/       solve/
display/                plot/                   surface/
exit                    preferences/            turbo-workflow/
file/                   print-license-usage     views/
mesh/                   report/

> /solve/initialize/compute-defaults/pressure-far-field (far2 far1)
far1

> /solve/initialize/initialize-flow

> 
adjoint/                parallel/               server/
define/                 parametric-study/       solve/
display/                plot/                   surface/
exit                    preferences/            turbo-workflow/
file/                   print-license-usage     views/
mesh/                   report/

> /solve/monitors/residual/convergence-criteria 1.e-9 1.e-9 1.e-9 1.e-9 1.e-9

> /solve/iterate 2000

  iter  continuity  x-velocity  y-velocity  z-velocity      energy     time/iter
     1  1.0000e+00  1.0000e+00  1.0000e+00  0.0000e+00  1.0000e+00  0:00:00 1999
     2  5.3296e-01  5.0299e-01  3.8751e-01  1.0000e+00  5.3357e-01  0:33:18 1998
     3  2.7599e-01  2.2171e-01  2.4298e-01  8.4724e-01  2.7622e-01  0:26:38 1997
     4  1.7107e-01  1.5399e-01  1.5172e-01  5.6153e-01  1.7113e-01  0:21:17 1996
     5  1.3095e-01  1.1073e-01  9.7174e-02  5.4458e-01  1.3104e-01  0:17:01 1995
     6  1.0877e-01  7.7316e-02  6.7518e-02  6.8989e-01  1.0890e-01  0:13:37 1994
     7  9.3631e-02  5.5607e-02  5.0435e-02  7.0196e-01  9.3780e-02  0:10:53 1993
     8  8.2533e-02  4.2721e-02  3.9219e-02  6.6339e-01  8.2686e-02  0:08:42 1992
     9  7.3894e-02  3.5131e-02  3.1533e-02  6.1789e-01  7.4038e-02  0:13:36 1991
    10  6.7531e-02  3.0952e-02  2.6143e-02  5.9059e-01  6.7661e-02  0:10:52 1990
    11  6.3223e-02  2.8955e-02  2.2312e-02  5.6052e-01  6.3340e-02  0:08:42 1989

  iter  continuity  x-velocity  y-velocity  z-velocity      energy     time/iter
    12  6.0663e-02  2.8313e-02  1.9575e-02  5.3846e-01  6.0768e-02  0:06:57 1988
    13  5.9449e-02  2.8498e-02  1.7651e-02  5.3049e-01  5.9542e-02  0:05:33 1987
    14  5.9198e-02  2.9258e-02  1.6352e-02  5.3588e-01  5.9281e-02  0:04:27 1986
    15  5.9472e-02  3.0328e-02  1.5500e-02  5.5431e-01  5.9544e-02  0:03:33 1985
    16  6.0472e-02  3.1641e-02  1.4996e-02  5.8394e-01  6.0535e-02  0:02:50 1984
    17  6.1972e-02  3.3077e-02  1.4737e-02  6.1875e-01  6.2024e-02  0:02:16 1983
    18  6.3725e-02  3.4418e-02  1.4643e-02  6.6049e-01  6.3766e-02  0:01:49 1982
    19  6.5443e-02  3.5638e-02  1.4621e-02  7.1217e-01  6.5471e-02  0:01:27 1981
    20  6.6893e-02  3.6590e-02  1.4655e-02  7.7249e-01  6.6905e-02  0:01:10 1980
    21  6.8367e-02  3.7398e-02  1.4842e-02  8.3976e-01  6.8363e-02  0:00:56 1979
    22  6.9687e-02  3.7964e-02  1.5054e-02  9.0610e-01  6.9666e-02  0:07:20 1978

  iter  continuity  x-velocity  y-velocity  z-velocity      energy     time/iter
    23  7.0557e-02  3.8167e-02  1.5349e-02  9.6688e-01  7.0517e-02  0:05:52 1977
    24  7.0790e-02  3.7944e-02  1.5408e-02  1.0165e+00  7.0729e-02  0:04:41 1976
    25  7.0727e-02  3.7609e-02  1.5553e-02  1.0507e+00  7.0646e-02  0:03:45 1975
    26  7.0236e-02  3.7070e-02  1.5549e-02  1.0660e+00  7.0134e-02  0:03:00 1974
    27  6.9150e-02  3.6265e-02  1.5425e-02  1.0596e+00  6.9027e-02  0:02:24 1973
    28  6.7468e-02  3.5169e-02  1.5093e-02  1.0334e+00  6.7324e-02  0:01:55 1972
    29  6.5424e-02  3.4133e-02  1.4899e-02  9.8858e-01  6.5259e-02  0:01:32 1971
    30  6.2961e-02  3.3006e-02  1.4698e-02  9.2461e-01  6.2778e-02  0:01:14 1970
    31  6.0080e-02  3.1799e-02  1.4575e-02  8.5538e-01  5.9879e-02  0:00:59 1969
    32  5.7020e-02  3.0734e-02  1.4735e-02  7.8757e-01  5.6803e-02  0:00:47 1968
    33  5.3668e-02  2.9931e-02  1.5263e-02  7.2998e-01  5.3437e-02  0:00:38 1967

  iter  continuity  x-velocity  y-velocity  z-velocity      energy     time/iter
    34  5.0183e-02  2.9183e-02  1.6105e-02  6.9438e-01  4.9940e-02  0:00:30 1966
    35  4.6660e-02  2.8506e-02  1.7248e-02  6.8777e-01  4.6407e-02  0:06:57 1965
    36  4.3159e-02  2.8313e-02  1.8741e-02  7.0864e-01  4.2897e-02  0:05:33 1964
    37  3.9576e-02  2.8437e-02  2.0469e-02  7.5121e-01  3.9307e-02  0:04:27 1963
    38  3.6068e-02  2.8771e-02  2.2308e-02  8.0746e-01  3.5793e-02  0:03:33 1962
    39  3.2666e-02  2.9301e-02  2.4201e-02  8.6952e-01  3.2387e-02  0:02:50 1961
    40  2.9546e-02  3.0050e-02  2.6076e-02  9.2855e-01  2.9266e-02  0:02:16 1960
    41  2.6498e-02  3.1077e-02  2.7900e-02  9.7922e-01  2.6216e-02  0:01:49 1959
    42  2.3546e-02  3.2277e-02  2.9628e-02  1.0214e+00  2.3263e-02  0:01:27 1958
    43  2.0779e-02  3.3596e-02  3.1221e-02  1.0518e+00  2.0497e-02  0:01:10 1957
    44  1.8248e-02  3.4939e-02  3.2654e-02  1.0633e+00  1.7967e-02  0:00:56 1956

  iter  continuity  x-velocity  y-velocity  z-velocity      energy     time/iter
    45  1.5974e-02  3.6322e-02  3.3932e-02  1.0542e+00  1.5696e-02  0:00:45 1955
    46  1.3964e-02  3.7719e-02  3.5052e-02  1.0279e+00  1.3693e-02  0:00:36 1954
    47  1.2260e-02  3.9118e-02  3.5999e-02  9.9006e-01  1.2000e-02  0:00:28 1953
    48  1.0897e-02  4.0489e-02  3.6765e-02  9.4226e-01  1.0655e-02  0:06:53 1952
    49  9.8550e-03  4.1824e-02  3.7353e-02  8.8790e-01  9.6381e-03  0:05:30 1951
    50  9.1802e-03  4.3126e-02  3.7756e-02  8.3003e-01  8.9960e-03  0:04:24 1950
    51  8.8850e-03  4.4377e-02  3.7982e-02  7.7150e-01  8.7396e-03  0:03:31 1949
    52  8.9352e-03  4.5567e-02  3.8036e-02  7.1441e-01  8.8298e-03  0:02:49 1948
    53  9.2718e-03  4.6678e-02  3.7930e-02  6.6076e-01  9.2028e-03  0:02:15 1947
    54  9.8077e-03  4.7689e-02  3.7663e-02  6.2047e-01  9.7687e-03  0:01:48 1946
    55  1.0466e-02  4.8561e-02  3.7237e-02  5.9363e-01  1.0450e-02  0:01:26 1945

  iter  continuity  x-velocity  y-velocity  z-velocity      energy     time/iter
    56  1.1192e-02  4.9321e-02  3.6655e-02  5.8055e-01  1.1192e-02  0:01:09 1944
    57  1.1941e-02  4.9965e-02  3.5916e-02  5.8153e-01  1.1953e-02  0:00:55 1943
    58  1.2680e-02  5.0466e-02  3.5024e-02  5.9523e-01  1.2699e-02  0:00:44 1942
    59  1.3376e-02  5.0793e-02  3.3981e-02  6.1765e-01  1.3399e-02  0:00:35 1941
    60  1.4004e-02  5.0915e-02  3.2813e-02  6.4349e-01  1.4030e-02  0:06:56 1940
    61  1.4554e-02  5.0841e-02  3.1543e-02  6.7200e-01  1.4579e-02  0:05:33 1939
    62  1.5009e-02  5.0649e-02  3.0129e-02  7.0308e-01  1.5034e-02  0:04:26 1938
    63  1.5356e-02  5.0286e-02  2.8622e-02  7.3261e-01  1.5378e-02  0:03:33 1937
    64  1.5592e-02  4.9762e-02  2.7047e-02  7.5383e-01  1.5611e-02  0:02:50 1936
    65  1.5690e-02  4.8672e-02  2.5466e-02  7.7049e-01  1.5706e-02  0:02:16 1935
    66  1.5649e-02  4.7312e-02  2.3813e-02  7.7990e-01  1.5661e-02  0:01:49 1934

  iter  continuity  x-velocity  y-velocity  z-velocity      energy     time/iter
    67  1.5470e-02  4.5803e-02  2.2089e-02  7.8235e-01  1.5478e-02  0:01:27 1933
    68  1.5152e-02  4.4158e-02  2.0332e-02  7.7808e-01  1.5156e-02  0:01:10 1932
    69  1.4696e-02  4.2379e-02  1.8589e-02  7.6734e-01  1.4695e-02  0:00:56 1931
    70  1.4094e-02  4.0482e-02  1.6860e-02  7.4942e-01  1.4090e-02  0:00:44 1930
    71  1.3367e-02  3.8538e-02  1.5227e-02  7.2655e-01  1.3360e-02  0:00:36 1929
    72  1.2517e-02  3.6455e-02  1.3760e-02  6.9879e-01  1.2508e-02  0:00:28 1928
    73  1.1580e-02  3.4447e-02  1.2483e-02  6.6818e-01  1.1569e-02  0:06:48 1927
    74  1.0580e-02  3.2744e-02  1.1386e-02  6.4159e-01  1.0566e-02  0:05:26 1926
    75  9.5511e-03  3.1096e-02  1.0651e-02  6.1906e-01  9.5362e-03  0:04:21 1925
    76  8.5407e-03  2.9276e-02  1.0286e-02  6.0379e-01  8.5246e-03  0:03:29 1924
    77  7.6681e-03  2.7941e-02  1.0135e-02  5.9273e-01  7.6513e-03  0:02:47 1923

  iter  continuity  x-velocity  y-velocity  z-velocity      energy     time/iter
    78  7.0544e-03  2.7132e-02  1.0210e-02  5.8823e-01  7.0374e-03  0:02:13 1922
    79  6.8254e-03  2.6824e-02  1.0503e-02  5.8982e-01  6.8082e-03  0:01:47 1921
    80  7.0704e-03  2.6831e-02  1.0990e-02  5.9675e-01  7.0521e-03  0:01:25 1920
    81  7.7648e-03  2.7168e-02  1.1564e-02  6.1037e-01  7.7436e-03  0:01:08 1919
    82  8.8001e-03  2.7795e-02  1.2168e-02  6.2885e-01  8.7742e-03  0:00:55 1918
    83  1.0037e-02  2.8690e-02  1.2697e-02  6.4881e-01  1.0005e-02  0:00:44 1917
    84  1.1386e-02  2.9840e-02  1.3173e-02  6.6790e-01  1.1346e-02  0:00:35 1916
    85  1.2766e-02  3.1025e-02  1.3585e-02  6.8500e-01  1.2717e-02  0:06:51 1915
    86  1.4114e-02  3.2126e-02  1.3903e-02  6.9843e-01  1.4055e-02  0:05:29 1914
    87  1.5393e-02  3.3091e-02  1.4106e-02  7.0658e-01  1.5322e-02  0:04:23 1913
    88  1.6579e-02  3.3911e-02  1.4191e-02  7.1104e-01  1.6495e-02  0:03:30 1912

  iter  continuity  x-velocity  y-velocity  z-velocity      energy     time/iter
    89  1.7635e-02  3.4562e-02  1.4179e-02  7.0986e-01  1.7538e-02  0:02:48 1911
    90  1.8541e-02  3.5019e-02  1.4082e-02  7.0223e-01  1.8430e-02  0:02:14 1910
    91  1.9280e-02  3.5235e-02  1.3917e-02  6.8984e-01  1.9154e-02  0:01:47 1909
    92  1.9845e-02  3.5271e-02  1.3698e-02  6.6915e-01  1.9704e-02  0:01:26 1908
    93  2.0228e-02  3.5105e-02  1.3487e-02  6.4261e-01  2.0071e-02  0:01:09 1907
    94  2.0431e-02  3.4716e-02  1.3337e-02  6.1224e-01  2.0259e-02  0:00:55 1906
    95  2.0461e-02  3.4118e-02  1.3313e-02  5.7946e-01  2.0274e-02  0:00:44 1905
    96  2.0329e-02  3.3335e-02  1.3466e-02  5.4636e-01  2.0127e-02  0:00:35 1904
    97  2.0051e-02  3.2395e-02  1.3826e-02  5.1595e-01  1.9835e-02  0:00:28 1903
    98  1.9653e-02  3.1334e-02  1.4407e-02  4.9074e-01  1.9423e-02  0:06:43 1902
    99  1.9174e-02  3.0203e-02  1.5237e-02  4.7090e-01  1.8932e-02  0:05:22 1901

  iter  continuity  x-velocity  y-velocity  z-velocity      energy     time/iter
   100  1.8628e-02  2.9041e-02  1.6283e-02  4.5902e-01  1.8377e-02  0:04:18 1900
   101  1.8045e-02  2.7905e-02  1.7533e-02  4.5285e-01  1.7786e-02  0:03:26 1899
   102  1.7447e-02  2.6790e-02  1.8971e-02  4.4966e-01  1.7185e-02  0:02:45 1898
   103  1.6874e-02  2.5933e-02  2.0460e-02  4.5049e-01  1.6611e-02  0:02:12 1897
   104  1.6342e-02  2.5360e-02  2.1999e-02  4.5501e-01  1.6081e-02  0:01:45 1896
   105  1.5896e-02  2.4946e-02  2.3601e-02  4.6177e-01  1.5643e-02  0:01:24 1895
   106  1.5623e-02  2.5202e-02  2.5093e-02  4.6739e-01  1.5382e-02  0:01:07 1894
   107  1.5453e-02  2.5683e-02  2.6543e-02  4.7301e-01  1.5229e-02  0:00:54 1893
   108  1.5329e-02  2.6454e-02  2.7873e-02  4.8025e-01  1.5124e-02  0:00:43 1892
   109  1.5208e-02  2.7609e-02  2.9052e-02  4.8701e-01  1.5023e-02  0:00:34 1891
   110  1.5372e-02  2.9124e-02  3.0074e-02  4.8804e-01  1.5210e-02  0:00:28 1890

  iter  continuity  x-velocity  y-velocity  z-velocity      energy     time/iter
   111  1.5453e-02  3.0473e-02  3.0899e-02  4.8712e-01  1.5313e-02  0:06:40 1889
   112  1.5548e-02  3.1829e-02  3.1514e-02  4.8644e-01  1.5430e-02  0:05:20 1888
   113  1.5517e-02  3.3459e-02  3.1945e-02  4.9055e-01  1.5418e-02  0:04:16 1887
   114  1.5540e-02  3.5245e-02  3.2196e-02  5.0538e-01  1.5459e-02  0:03:24 1886
   115  1.5815e-02  3.7046e-02  3.2272e-02  5.1793e-01  1.5751e-02  0:02:43 1885
   116  1.5764e-02  3.8532e-02  3.2179e-02  5.4134e-01  1.5714e-02  0:02:11 1884
   117  1.5765e-02  3.9919e-02  3.1911e-02  5.6718e-01  1.5727e-02  0:01:44 1883
   118  1.5888e-02  4.1342e-02  3.1474e-02  5.9897e-01  1.5860e-02  0:01:24 1882
   119  1.6077e-02  4.2841e-02  3.0901e-02  6.2226e-01  1.6057e-02  0:01:07 1881
   120  1.6289e-02  4.4117e-02  3.0210e-02  6.1882e-01  1.6274e-02  0:00:53 1880
   121  1.6549e-02  4.5183e-02  2.9409e-02  6.2993e-01  1.6538e-02  0:06:59 1879

  iter  continuity  x-velocity  y-velocity  z-velocity      energy     time/iter
   122  1.6866e-02  4.6129e-02  2.8523e-02  6.9403e-01  1.6856e-02  0:05:35 1878
   123  1.7243e-02  4.7032e-02  2.7563e-02  7.5868e-01  1.7232e-02  0:04:28 1877
   124  1.7601e-02  4.7808e-02  2.6551e-02  7.6130e-01  1.7588e-02  0:03:34 1876
   125  1.7925e-02  4.8335e-02  2.5513e-02  7.6896e-01  1.7908e-02  0:02:51 1875
   126  1.8232e-02  4.8640e-02  2.4483e-02  8.5162e-01  1.8209e-02  0:02:17 1874
   127  1.8566e-02  4.8825e-02  2.3477e-02  9.4429e-01  1.8536e-02  0:01:49 1873
   128  1.8939e-02  4.8868e-02  2.2516e-02  1.0225e+00  1.8900e-02  0:07:42 1872
   129  1.9277e-02  4.8700e-02  2.1625e-02  1.0953e+00  1.9227e-02  0:06:09 1871
   130  1.9478e-02  4.8308e-02  2.0831e-02  1.2043e+00  1.9417e-02  0:04:55 1870
   131  1.9544e-02  4.7740e-02  2.0168e-02  1.2982e+00  1.9470e-02  0:03:56 1869
   132  1.9645e-02  4.7089e-02  1.9635e-02  1.3777e+00  1.9557e-02  0:03:09 1868

  iter  continuity  x-velocity  y-velocity  z-velocity      energy     time/iter
   133  1.9814e-02  4.6302e-02  1.9228e-02  1.4334e+00  1.9711e-02  0:02:31 1867
   134  1.9953e-02  4.5219e-02  1.9081e-02  1.4442e+00  1.9834e-02  0:02:01 1866
   135  1.9883e-02  4.3862e-02  1.9161e-02  1.4644e+00  1.9748e-02  0:07:49 1865
   136  1.9749e-02  4.2498e-02  1.9304e-02  1.5469e+00  1.9597e-02  0:06:15 1864
   137  1.9713e-02  4.1252e-02  1.9641e-02  1.6284e+00  1.9545e-02  0:05:00 1863
   138  1.9768e-02  3.9954e-02  2.0197e-02  1.6901e+00  1.9587e-02  0:04:00 1862
   139  1.9657e-02  3.8594e-02  2.0926e-02  1.7488e+00  1.9463e-02  0:03:12 1861
   140  1.9421e-02  3.7165e-02  2.1753e-02  1.8173e+00  1.9215e-02  0:02:33 1860
   141  1.9045e-02  3.5842e-02  2.2660e-02  1.8886e+00  1.8829e-02  0:02:03 1859
   142  1.8830e-02  3.4642e-02  2.3653e-02  1.9824e+00  1.8606e-02  0:01:38 1858
   143  1.8684e-02  3.3611e-02  2.4707e-02  2.0805e+00  1.8456e-02  0:07:30 1857

  iter  continuity  x-velocity  y-velocity  z-velocity      energy     time/iter
   144  1.8768e-02  3.3021e-02  2.5676e-02  2.1888e+00  1.8542e-02  0:06:00 1856
   145  1.9228e-02  3.2633e-02  2.6638e-02  2.3020e+00  1.9008e-02  0:04:48 1855
   146  1.9246e-02  3.2483e-02  2.7546e-02  2.3958e+00  1.9032e-02  0:03:50 1854
   147  1.8816e-02  3.2454e-02  2.8392e-02  2.4665e+00  1.8606e-02  0:03:04 1853
   148  1.8249e-02  3.2599e-02  2.9124e-02  2.5011e+00  1.8046e-02  0:02:27 1852
   149  1.7578e-02  3.2884e-02  2.9708e-02  2.5005e+00  1.7383e-02  0:01:58 1851
   150  1.6655e-02  3.3367e-02  3.0097e-02  2.4678e+00  1.6469e-02  0:07:44 1850
   151  1.5487e-02  3.3800e-02  3.0405e-02  2.3902e+00  1.5311e-02  0:06:11 1849
   152  1.4025e-02  3.4250e-02  3.0584e-02  2.2842e+00  1.3858e-02  0:04:57 1848
   153  1.2749e-02  3.4705e-02  3.0646e-02  2.2047e+00  1.2594e-02  0:03:57 1847
   154  1.2024e-02  3.5198e-02  3.0584e-02  2.1434e+00  1.1886e-02  0:03:10 1846

  iter  continuity  x-velocity  y-velocity  z-velocity      energy     time/iter
   155  1.1868e-02  3.5785e-02  3.0394e-02  2.0850e+00  1.1750e-02  0:02:32 1845
   156  1.1994e-02  3.6466e-02  3.0103e-02  2.0585e+00  1.1896e-02  0:02:01 1844
   157  1.2110e-02  3.7164e-02  2.9726e-02  2.0488e+00  1.2030e-02  0:07:46 1843
   158  1.2102e-02  3.7890e-02  2.9273e-02  2.0559e+00  1.2037e-02  0:06:12 1842
   159  1.2102e-02  3.8647e-02  2.8716e-02  2.1163e+00  1.2050e-02  0:04:58 1841
   160  1.2236e-02  3.9456e-02  2.8026e-02  2.2324e+00  1.2196e-02  0:03:58 1840
   161  1.2752e-02  4.0270e-02  2.7259e-02  2.4192e+00  1.2722e-02  0:03:10 1839
   162  1.3593e-02  4.1151e-02  2.6432e-02  2.6649e+00  1.3571e-02  0:02:32 1838
   163  1.4683e-02  4.2148e-02  2.5563e-02  2.9585e+00  1.4666e-02  0:02:02 1837
   164  1.5863e-02  4.3145e-02  2.4654e-02  3.2552e+00  1.5850e-02  0:01:37 1836
   165  1.6876e-02  4.4312e-02  2.3724e-02  3.5212e+00  1.6865e-02  0:07:25 1835

  iter  continuity  x-velocity  y-velocity  z-velocity      energy     time/iter
   166  1.7845e-02  4.5517e-02  2.2836e-02  3.7544e+00  1.7836e-02  0:05:56 1834
   167  1.8724e-02  4.6932e-02  2.2039e-02  3.9927e+00  1.8716e-02  0:04:44 1833
   168  1.9718e-02  4.8396e-02  2.1316e-02  4.2238e+00  1.9711e-02  0:03:47 1832
   169  2.0733e-02  5.0101e-02  2.0782e-02  4.4501e+00  2.0727e-02  0:03:02 1831
   170  2.1897e-02  5.1802e-02  2.0461e-02  4.6863e+00  2.1892e-02  0:02:25 1830
   171  2.3116e-02  5.3680e-02  2.0413e-02  4.9151e+00  2.3112e-02  0:01:56 1829
   172  2.4343e-02  5.5504e-02  2.0692e-02  5.1676e+00  2.4340e-02  0:07:39 1828
   173  2.5462e-02  5.6827e-02  2.1422e-02  5.4272e+00  2.5460e-02  0:06:07 1827
   174  2.6320e-02  5.7831e-02  2.2808e-02  5.7215e+00  2.6319e-02  0:04:53 1826
   175  2.6747e-02  5.7927e-02  2.4836e-02  6.0512e+00  2.6748e-02  0:03:54 1825
   176  2.6486e-02  5.7339e-02  2.7273e-02  6.2372e+00  2.6488e-02  0:03:07 1824

  iter  continuity  x-velocity  y-velocity  z-velocity      energy     time/iter
   177  2.5618e-02  5.5878e-02  2.9686e-02  6.2446e+00  2.5619e-02  0:02:30 1823
   178  2.4308e-02  5.4924e-02  3.2000e-02  6.0011e+00  2.4307e-02  0:02:00 1822
   179  2.2750e-02  5.4346e-02  3.3890e-02  5.6324e+00  2.2747e-02  0:01:36 1821
   180  2.1408e-02  5.5276e-02  3.5088e-02  5.2675e+00  2.1403e-02  0:07:21 1820
   181  2.0568e-02  5.7497e-02  3.5368e-02  4.8861e+00  2.0565e-02  0:05:52 1819
   182  2.0354e-02  6.0216e-02  3.4852e-02  4.6387e+00  2.0356e-02  0:04:42 1818
   183  2.0166e-02  6.2187e-02  3.3666e-02  4.4006e+00  2.0172e-02  0:03:45 1817
   184  2.0075e-02  6.3005e-02  3.2079e-02  4.1599e+00  2.0084e-02  0:03:00 1816
   185  1.9794e-02  6.2444e-02  3.0351e-02  3.9470e+00  1.9804e-02  0:02:24 1815
   186  1.9296e-02  6.0665e-02  2.8505e-02  3.7798e+00  1.9307e-02  0:01:55 1814
   187  1.8806e-02  5.8318e-02  2.6677e-02  3.6640e+00  1.8815e-02  0:07:35 1813

  iter  continuity  x-velocity  y-velocity  z-velocity      energy     time/iter
   188  1.8223e-02  5.5385e-02  2.5092e-02  3.6163e+00  1.8230e-02  0:06:04 1812
   189  1.7684e-02  5.2180e-02  2.3602e-02  3.6071e+00  1.7689e-02  0:04:51 1811
   190  1.7303e-02  4.9023e-02  2.2232e-02  3.6358e+00  1.7304e-02  0:03:52 1810
   191  1.7209e-02  4.6033e-02  2.1044e-02  3.6834e+00  1.7206e-02  0:03:06 1809
   192  1.7052e-02  4.3253e-02  2.0102e-02  3.6964e+00  1.7045e-02  0:02:29 1808
   193  1.6773e-02  4.0710e-02  1.9427e-02  3.6886e+00  1.6763e-02  0:01:59 1807
   194  1.6421e-02  3.8631e-02  1.8800e-02  3.6397e+00  1.6407e-02  0:07:36 1806
   195  1.6049e-02  3.7331e-02  1.8073e-02  3.5369e+00  1.6034e-02  0:06:05 1805
   196  1.5648e-02  3.6383e-02  1.7276e-02  3.4017e+00  1.5631e-02  0:04:52 1804
   197  1.5280e-02  3.5872e-02  1.6520e-02  3.2514e+00  1.5261e-02  0:03:53 1803
   198  1.4985e-02  3.5718e-02  1.5843e-02  3.1018e+00  1.4964e-02  0:03:06 1802

  iter  continuity  x-velocity  y-velocity  z-velocity      energy     time/iter
   199  1.4712e-02  3.5860e-02  1.5282e-02  2.9550e+00  1.4689e-02  0:02:29 1801
   200  1.4508e-02  3.6200e-02  1.4880e-02  2.8121e+00  1.4483e-02  0:01:59 1800
   201  1.4378e-02  3.6575e-02  1.4439e-02  2.6925e+00  1.4350e-02  0:07:35 1799
   202  1.4291e-02  3.6665e-02  1.3956e-02  2.5946e+00  1.4260e-02  0:06:04 1798
   203  1.4161e-02  3.6511e-02  1.3563e-02  2.5303e+00  1.4128e-02  0:04:51 1797
   204  1.4097e-02  3.6353e-02  1.3252e-02  2.4930e+00  1.4061e-02  0:03:53 1796
   205  1.4160e-02  3.6190e-02  1.3019e-02  2.4760e+00  1.4122e-02  0:03:06 1795
   206  1.4269e-02  3.5974e-02  1.2795e-02  2.4640e+00  1.4229e-02  0:02:29 1794
   207  1.4411e-02  3.5601e-02  1.2669e-02  2.4639e+00  1.4371e-02  0:01:59 1793
   208  1.4516e-02  3.4992e-02  1.2665e-02  2.4728e+00  1.4475e-02  0:01:35 1792
   209  1.4429e-02  3.4192e-02  1.2719e-02  2.4730e+00  1.4388e-02  0:07:14 1791

  iter  continuity  x-velocity  y-velocity  z-velocity      energy     time/iter
   210  1.4280e-02  3.3501e-02  1.3147e-02  2.4838e+00  1.4239e-02  0:05:47 1790
   211  1.4081e-02  3.3138e-02  1.3706e-02  2.4916e+00  1.4040e-02  0:04:38 1789
   212  1.3914e-02  3.3184e-02  1.4100e-02  2.4909e+00  1.3874e-02  0:03:42 1788
   213  1.3741e-02  3.3253e-02  1.4267e-02  2.5089e+00  1.3703e-02  0:02:57 1787
   214  1.3478e-02  3.3131e-02  1.4271e-02  2.5172e+00  1.3442e-02  0:02:22 1786
   215  1.3118e-02  3.2879e-02  1.4251e-02  2.5073e+00  1.3084e-02  0:01:53 1785
   216  1.2780e-02  3.2618e-02  1.4260e-02  2.4879e+00  1.2748e-02  0:07:28 1784
   217  1.2433e-02  3.2594e-02  1.4383e-02  2.4595e+00  1.2404e-02  0:05:58 1783
   218  1.2162e-02  3.2605e-02  1.4682e-02  2.4478e+00  1.2136e-02  0:04:46 1782
   219  1.2043e-02  3.2729e-02  1.5105e-02  2.4462e+00  1.2020e-02  0:03:49 1781
   220  1.1994e-02  3.3028e-02  1.5420e-02  2.4414e+00  1.1975e-02  0:03:03 1780

  iter  continuity  x-velocity  y-velocity  z-velocity      energy     time/iter
   221  1.2029e-02  3.3408e-02  1.5593e-02  2.4634e+00  1.2014e-02  0:02:26 1779
   222  1.1964e-02  3.3696e-02  1.5597e-02  2.5174e+00  1.1953e-02  0:01:57 1778
   223  1.1777e-02  3.3894e-02  1.5428e-02  2.5727e+00  1.1770e-02  0:07:29 1777
   224  1.1424e-02  3.3702e-02  1.5127e-02  2.5946e+00  1.1420e-02  0:05:59 1776
   225  1.0999e-02  3.3075e-02  1.4619e-02  2.5628e+00  1.0996e-02  0:04:47 1775
   226  1.0602e-02  3.2158e-02  1.3981e-02  2.4947e+00  1.0601e-02  0:03:49 1774
   227  1.0498e-02  3.1052e-02  1.3215e-02  2.4393e+00  1.0498e-02  0:03:03 1773
   228  1.0645e-02  2.9561e-02  1.2440e-02  2.3980e+00  1.0646e-02  0:02:27 1772
   229  1.1134e-02  2.8036e-02  1.1663e-02  2.3653e+00  1.1135e-02  0:01:57 1771
   230  1.1911e-02  2.6651e-02  1.0943e-02  2.3728e+00  1.1910e-02  0:07:28 1770
   231  1.2603e-02  2.5418e-02  1.0368e-02  2.3870e+00  1.2601e-02  0:05:58 1769

  iter  continuity  x-velocity  y-velocity  z-velocity      energy     time/iter
   232  1.3061e-02  2.4320e-02  1.0007e-02  2.3832e+00  1.3056e-02  0:04:46 1768
   233  1.3190e-02  2.3293e-02  9.7325e-03  2.3793e+00  1.3183e-02  0:03:49 1767
   234  1.3038e-02  2.2311e-02  9.3419e-03  2.3569e+00  1.3028e-02  0:03:03 1766
   235  1.2529e-02  2.1590e-02  9.0208e-03  2.3064e+00  1.2517e-02  0:02:26 1765
   236  1.1756e-02  2.0832e-02  8.7476e-03  2.2519e+00  1.1742e-02  0:01:57 1764
   237  1.0825e-02  2.0178e-02  8.3562e-03  2.1905e+00  1.0810e-02  0:07:26 1763
   238  1.0145e-02  1.9712e-02  7.8529e-03  2.1638e+00  1.0128e-02  0:05:57 1762
   239  9.6758e-03  1.9228e-02  7.3089e-03  2.1214e+00  9.6588e-03  0:04:45 1761
   240  9.4256e-03  1.8699e-02  6.8140e-03  2.0905e+00  9.4083e-03  0:03:48 1760
   241  9.2427e-03  1.8067e-02  6.3746e-03  2.0615e+00  9.2251e-03  0:03:02 1759
   242  9.0691e-03  1.7374e-02  6.0496e-03  2.0025e+00  9.0516e-03  0:08:17 1758

  iter  continuity  x-velocity  y-velocity  z-velocity      energy     time/iter
   243  8.7918e-03  1.6638e-02  5.6885e-03  1.9368e+00  8.7747e-03  0:06:38 1757
   244  8.4136e-03  1.5894e-02  5.4147e-03  1.8808e+00  8.3970e-03  0:05:18 1756
   245  7.9651e-03  1.5187e-02  5.3205e-03  1.8387e+00  7.9492e-03  0:04:14 1755
   246  7.6065e-03  1.4660e-02  5.2992e-03  1.7990e+00  7.5918e-03  0:03:23 1754
   247  7.3157e-03  1.4186e-02  5.3862e-03  1.7628e+00  7.3028e-03  0:02:43 1753
   248  6.9718e-03  1.3634e-02  5.4249e-03  1.7355e+00  6.9606e-03  0:02:10 1752
   249  6.6352e-03  1.3213e-02  5.5128e-03  1.7213e+00  6.6259e-03  0:07:34 1751
   250  6.2724e-03  1.2832e-02  5.5819e-03  1.7180e+00  6.2648e-03  0:06:03 1750
   251  5.9228e-03  1.2554e-02  5.6611e-03  1.7288e+00  5.9167e-03  0:04:50 1749
   252  5.5299e-03  1.2335e-02  5.6116e-03  1.7421e+00  5.5252e-03  0:03:52 1748
   253  5.1002e-03  1.2225e-02  5.5951e-03  1.7474e+00  5.0967e-03  0:03:06 1747

  iter  continuity  x-velocity  y-velocity  z-velocity      energy     time/iter
   254  4.7193e-03  1.2171e-02  5.5934e-03  1.7439e+00  4.7164e-03  0:02:28 1746
   255  4.4675e-03  1.2142e-02  5.6182e-03  1.7466e+00  4.4646e-03  0:01:59 1745
   256  4.3996e-03  1.2203e-02  5.6119e-03  1.7760e+00  4.3959e-03  0:07:24 1744
   257  4.4835e-03  1.2283e-02  5.6140e-03  1.8122e+00  4.4784e-03  0:05:55 1743
   258  4.6191e-03  1.2355e-02  5.6563e-03  1.8555e+00  4.6123e-03  0:04:44 1742
   259  4.7392e-03  1.2408e-02  5.6869e-03  1.9197e+00  4.7305e-03  0:03:47 1741
   260  4.8073e-03  1.2467e-02  5.7200e-03  1.9854e+00  4.7967e-03  0:03:01 1740
   261  4.7820e-03  1.2489e-02  5.7305e-03  2.0352e+00  4.7695e-03  0:02:25 1739
   262  4.7076e-03  1.2469e-02  5.7388e-03  2.1015e+00  4.6930e-03  0:01:56 1738
   263  4.6260e-03  1.2412e-02  5.7344e-03  2.1823e+00  4.6096e-03  0:07:20 1737
   264  4.5616e-03  1.2332e-02  5.7203e-03  2.2493e+00  4.5437e-03  0:05:52 1736

  iter  continuity  x-velocity  y-velocity  z-velocity      energy     time/iter
   265  4.5526e-03  1.2223e-02  5.7002e-03  2.3191e+00  4.5339e-03  0:04:41 1735
   266  4.5924e-03  1.2082e-02  5.6750e-03  2.3754e+00  4.5735e-03  0:03:45 1734
   267  4.6679e-03  1.1916e-02  5.6591e-03  2.4246e+00  4.6494e-03  0:03:00 1733
   268  4.7800e-03  1.1765e-02  5.6639e-03  2.4718e+00  4.7622e-03  0:02:24 1732
   269  4.8662e-03  1.1511e-02  5.6481e-03  2.5367e+00  4.8496e-03  0:01:55 1731
   270  4.9846e-03  1.1240e-02  5.6507e-03  2.6216e+00  4.9697e-03  0:01:32 1730
   271  5.1215e-03  1.1051e-02  5.6482e-03  2.7240e+00  5.1085e-03  0:06:59 1729
   272  5.2021e-03  1.0934e-02  5.6440e-03  2.8494e+00  5.1910e-03  0:05:35 1728
   273  5.2311e-03  1.0898e-02  5.6741e-03  2.9714e+00  5.2216e-03  0:04:28 1727
   274  5.2132e-03  1.0914e-02  5.7408e-03  3.0827e+00  5.2053e-03  0:03:34 1726
   275  5.1927e-03  1.0995e-02  5.8436e-03  3.1956e+00  5.1865e-03  0:02:51 1725

  iter  continuity  x-velocity  y-velocity  z-velocity      energy     time/iter
   276  5.1961e-03  1.1128e-02  5.9859e-03  3.3193e+00  5.1914e-03  0:02:17 1724
   277  5.2352e-03  1.1320e-02  6.1697e-03  3.4528e+00  5.2317e-03  0:01:50 1723
   278  5.2589e-03  1.1671e-02  6.3671e-03  3.6031e+00  5.2565e-03  0:07:12 1722
   279  5.2370e-03  1.2117e-02  6.5910e-03  3.7128e+00  5.2350e-03  0:05:45 1721
   280  5.2291e-03  1.2582e-02  6.8133e-03  3.7786e+00  5.2271e-03  0:04:36 1720
   281  5.2612e-03  1.3108e-02  7.0302e-03  3.8454e+00  5.2587e-03  0:03:41 1719
   282  5.3346e-03  1.3700e-02  7.2399e-03  3.9783e+00  5.3309e-03  0:02:57 1718
   283  5.3259e-03  1.4312e-02  7.4658e-03  4.1035e+00  5.3205e-03  0:02:21 1717
   284  5.2247e-03  1.4847e-02  7.6626e-03  4.2470e+00  5.2166e-03  0:01:53 1716
   285  5.1209e-03  1.5333e-02  7.8326e-03  4.4038e+00  5.1094e-03  0:07:13 1715
   286  5.0937e-03  1.5831e-02  7.9882e-03  4.5323e+00  5.0781e-03  0:05:46 1714

  iter  continuity  x-velocity  y-velocity  z-velocity      energy     time/iter
   287  5.1893e-03  1.6240e-02  8.1209e-03  4.6287e+00  5.1689e-03  0:04:37 1713
   288  5.4269e-03  1.6496e-02  8.1873e-03  4.7153e+00  5.4016e-03  0:03:41 1712
   289  5.8060e-03  1.6592e-02  8.1721e-03  4.7450e+00  5.7762e-03  0:02:57 1711
   290  6.2274e-03  1.6612e-02  8.1534e-03  4.7506e+00  6.1934e-03  0:02:22 1710
   291  6.6462e-03  1.6582e-02  8.1691e-03  4.6745e+00  6.6081e-03  0:01:53 1709
   292  6.9182e-03  1.6509e-02  8.2192e-03  4.5769e+00  6.8754e-03  0:07:12 1708
   293  7.1197e-03  1.6379e-02  8.2615e-03  4.4690e+00  7.0716e-03  0:05:45 1707
   294  7.2372e-03  1.6269e-02  8.2574e-03  4.5695e+00  7.1835e-03  0:04:36 1706
   295  7.2152e-03  1.6122e-02  8.2856e-03  4.5833e+00  7.1548e-03  0:03:41 1705
   296  7.1225e-03  1.5839e-02  8.2948e-03  4.3888e+00  7.0548e-03  0:02:57 1704
   297  7.0835e-03  1.5467e-02  8.2740e-03  4.1259e+00  7.0089e-03  0:02:21 1703

  iter  continuity  x-velocity  y-velocity  z-velocity      energy     time/iter
   298  7.1440e-03  1.5053e-02  8.2763e-03  3.9287e+00  7.0637e-03  0:01:53 1702
   299  7.2814e-03  1.4669e-02  8.3034e-03  3.7588e+00  7.1970e-03  0:07:10 1701
   300  7.4123e-03  1.4281e-02  8.3629e-03  3.5876e+00  7.3244e-03  0:05:44 1700
   301  7.5063e-03  1.3942e-02  8.4693e-03  3.4662e+00  7.4153e-03  0:04:35 1699
   302  7.5197e-03  1.3579e-02  8.5931e-03  3.3549e+00  7.4253e-03  0:03:40 1698
   303  7.4636e-03  1.3291e-02  8.7195e-03  3.2229e+00  7.3658e-03  0:02:56 1697
   304  7.3462e-03  1.3040e-02  8.8727e-03  3.1055e+00  7.2452e-03  0:02:21 1696
   305  7.2897e-03  1.2873e-02  9.0520e-03  2.9958e+00  7.1871e-03  0:01:52 1695
   306  7.3148e-03  1.2725e-02  9.2579e-03  2.9343e+00  7.2125e-03  0:07:09 1694
   307  7.3537e-03  1.2528e-02  9.5065e-03  2.8975e+00  7.2525e-03  0:05:43 1693
   308  7.3166e-03  1.2272e-02  9.7442e-03  2.8680e+00  7.2164e-03  0:04:34 1692

  iter  continuity  x-velocity  y-velocity  z-velocity      energy     time/iter
   309  7.2098e-03  1.2197e-02  9.9402e-03  2.8128e+00  7.1107e-03  0:03:39 1691
   310  7.0387e-03  1.2278e-02  1.0110e-02  2.7473e+00  6.9405e-03  0:02:55 1690
   311  6.8284e-03  1.2369e-02  1.0286e-02  2.6995e+00  6.7314e-03  0:02:20 1689
   312  6.6095e-03  1.2498e-02  1.0449e-02  2.6541e+00  6.5143e-03  0:01:52 1688
   313  6.4348e-03  1.2686e-02  1.0574e-02  2.6203e+00  6.3425e-03  0:07:07 1687
   314  6.2726e-03  1.2884e-02  1.0679e-02  2.5796e+00  6.1839e-03  0:05:41 1686
   315  6.0884e-03  1.3114e-02  1.0751e-02  2.5366e+00  6.0034e-03  0:04:33 1685
   316  5.9043e-03  1.3392e-02  1.0772e-02  2.5169e+00  5.8232e-03  0:03:38 1684
   317  5.6772e-03  1.3658e-02  1.0754e-02  2.5233e+00  5.5996e-03  0:02:54 1683
   318  5.3931e-03  1.3871e-02  1.0720e-02  2.5197e+00  5.3184e-03  0:02:19 1682
   319  5.1920e-03  1.4040e-02  1.0656e-02  2.5092e+00  5.1216e-03  0:01:52 1681

  iter  continuity  x-velocity  y-velocity  z-velocity      energy     time/iter
   320  5.0068e-03  1.4161e-02  1.0545e-02  2.5042e+00  4.9411e-03  0:07:05 1680
   321  5.0152e-03  1.4202e-02  1.0419e-02  2.4910e+00  4.9567e-03  0:05:40 1679
   322  5.2862e-03  1.4142e-02  1.0275e-02  2.4553e+00  5.2371e-03  0:04:32 1678
   323  5.6680e-03  1.4060e-02  1.0079e-02  2.3953e+00  5.6277e-03  0:03:37 1677
   324  6.0730e-03  1.4038e-02  9.8822e-03  2.3293e+00  6.0404e-03  0:02:54 1676
   325  6.4489e-03  1.4048e-02  9.6779e-03  2.3082e+00  6.4225e-03  0:02:19 1675
   326  6.5354e-03  1.4061e-02  9.4588e-03  2.2952e+00  6.5130e-03  0:01:51 1674
   327  6.4672e-03  1.4084e-02  9.2246e-03  2.3083e+00  6.4480e-03  0:07:03 1673
   328  6.1136e-03  1.4104e-02  8.9805e-03  2.2997e+00  6.0964e-03  0:05:39 1672
   329  5.6213e-03  1.4105e-02  8.7223e-03  2.3013e+00  5.6057e-03  0:04:31 1671
   330  5.1239e-03  1.4077e-02  8.4491e-03  2.3260e+00  5.1097e-03  0:03:36 1670

  iter  continuity  x-velocity  y-velocity  z-velocity      energy     time/iter
   331  4.7339e-03  1.4009e-02  8.1578e-03  2.3851e+00  4.7212e-03  0:02:53 1669
   332  4.4644e-03  1.3914e-02  7.8487e-03  2.4741e+00  4.4533e-03  0:02:18 1668
   333  4.2842e-03  1.3788e-02  7.5211e-03  2.5635e+00  4.2748e-03  0:01:51 1667
   334  4.1188e-03  1.3627e-02  7.1774e-03  2.6320e+00  4.1107e-03  0:07:02 1666
   335  3.9889e-03  1.3423e-02  6.8201e-03  2.6653e+00  3.9819e-03  0:05:37 1665
   336  3.8265e-03  1.3172e-02  6.4502e-03  2.6674e+00  3.8203e-03  0:04:30 1664
   337  3.6729e-03  1.2888e-02  6.0733e-03  2.6306e+00  3.6673e-03  0:03:35 1663
   338  3.5169e-03  1.2576e-02  5.6959e-03  2.5696e+00  3.5117e-03  0:02:52 1662
   339  3.3337e-03  1.2242e-02  5.3221e-03  2.4429e+00  3.3288e-03  0:02:18 1661
   340  3.1421e-03  1.1890e-02  4.9529e-03  2.2973e+00  3.1372e-03  0:01:50 1660
   341  2.9486e-03  1.1517e-02  4.5916e-03  2.1597e+00  2.9436e-03  0:07:00 1659

  iter  continuity  x-velocity  y-velocity  z-velocity      energy     time/iter
   342  2.7622e-03  1.1132e-02  4.2413e-03  2.0272e+00  2.7569e-03  0:05:36 1658
   343  2.6077e-03  1.0750e-02  3.9029e-03  1.9144e+00  2.6019e-03  0:04:28 1657
   344  2.4877e-03  1.0382e-02  3.5774e-03  1.8195e+00  2.4812e-03  0:03:35 1656
   345  2.3355e-03  1.0027e-02  3.2691e-03  1.7376e+00  2.3281e-03  0:02:52 1655
   346  2.1348e-03  9.6855e-03  2.9832e-03  1.6648e+00  2.1260e-03  0:07:48 1654
   347  1.9056e-03  9.3187e-03  2.7497e-03  1.6080e+00  1.8945e-03  0:06:14 1653
   348  1.6874e-03  8.9867e-03  2.5177e-03  1.5717e+00  1.6735e-03  0:04:59 1652
   349  1.5223e-03  8.6867e-03  2.2967e-03  1.5563e+00  1.5050e-03  0:03:59 1651
   350  1.4494e-03  8.4140e-03  2.0997e-03  1.5605e+00  1.4291e-03  0:03:11 1650
   351  1.4682e-03  8.1679e-03  1.9350e-03  1.5838e+00  1.4457e-03  0:02:33 1649
   352  1.5508e-03  7.9596e-03  1.7921e-03  1.6191e+00  1.5269e-03  0:02:02 1648

  iter  continuity  x-velocity  y-velocity  z-velocity      energy     time/iter
   353  1.6647e-03  7.7827e-03  1.7122e-03  1.6534e+00  1.6397e-03  0:07:07 1647
   354  1.7855e-03  7.6309e-03  1.6767e-03  1.6610e+00  1.7593e-03  0:05:41 1646
   355  1.9058e-03  7.5019e-03  1.6757e-03  1.6587e+00  1.8782e-03  0:04:33 1645
   356  2.0321e-03  7.3965e-03  1.7037e-03  1.6552e+00  2.0029e-03  0:03:38 1644
   357  2.1692e-03  7.3142e-03  1.7561e-03  1.6506e+00  2.1386e-03  0:02:55 1643
   358  2.3162e-03  7.2485e-03  1.8282e-03  1.6512e+00  2.2841e-03  0:02:20 1642
   359  2.4741e-03  7.1940e-03  1.9148e-03  1.6546e+00  2.4406e-03  0:01:52 1641
   360  2.6352e-03  7.1525e-03  2.0146e-03  1.6548e+00  2.6002e-03  0:06:57 1640
   361  2.7890e-03  7.1201e-03  2.1262e-03  1.6558e+00  2.7524e-03  0:05:34 1639
   362  2.9331e-03  7.0946e-03  2.2479e-03  1.6521e+00  2.8947e-03  0:04:27 1638
   363  3.0615e-03  7.0696e-03  2.3785e-03  1.6440e+00  3.0214e-03  0:03:33 1637

  iter  continuity  x-velocity  y-velocity  z-velocity      energy     time/iter
   364  3.1773e-03  7.0406e-03  2.5202e-03  1.6314e+00  3.1353e-03  0:02:50 1636
   365  3.2807e-03  7.0024e-03  2.6714e-03  1.6130e+00  3.2368e-03  0:02:16 1635
   366  3.3702e-03  6.9602e-03  2.8330e-03  1.5941e+00  3.3245e-03  0:01:49 1634
   367  3.4467e-03  6.9103e-03  3.0050e-03  1.5780e+00  3.3992e-03  0:01:27 1633
   368  3.5087e-03  6.8546e-03  3.1864e-03  1.5598e+00  3.4595e-03  0:06:36 1632
   369  3.5547e-03  6.7951e-03  3.3776e-03  1.5356e+00  3.5039e-03  0:05:17 1631
   370  3.5825e-03  6.7297e-03  3.5769e-03  1.5057e+00  3.5302e-03  0:04:13 1630
   371  3.5832e-03  6.6631e-03  3.7830e-03  1.4761e+00  3.5293e-03  0:03:22 1629
   372  3.5590e-03  6.5984e-03  3.9942e-03  1.4532e+00  3.5034e-03  0:02:42 1628
   373  3.5159e-03  6.5333e-03  4.2074e-03  1.4250e+00  3.4588e-03  0:02:09 1627
   374  3.4597e-03  6.4781e-03  4.4216e-03  1.4027e+00  3.4011e-03  0:07:09 1626

  iter  continuity  x-velocity  y-velocity  z-velocity      energy     time/iter
   375  3.3919e-03  6.4385e-03  4.6336e-03  1.3897e+00  3.3320e-03  0:05:43 1625
   376  3.3161e-03  6.4185e-03  4.8417e-03  1.3763e+00  3.2550e-03  0:04:34 1624
   377  3.2362e-03  6.4153e-03  5.0432e-03  1.3652e+00  3.1742e-03  0:03:39 1623
   378  3.1484e-03  6.4273e-03  5.2357e-03  1.3603e+00  3.0856e-03  0:02:55 1622
   379  3.0564e-03  6.4566e-03  5.4168e-03  1.3596e+00  2.9930e-03  0:02:20 1621
   380  2.9608e-03  6.5105e-03  5.5843e-03  1.3595e+00  2.8968e-03  0:01:52 1620
   381  2.8633e-03  6.5848e-03  5.7360e-03  1.3610e+00  2.7990e-03  0:06:53 1619
   382  2.7617e-03  6.6712e-03  5.8693e-03  1.3643e+00  2.6970e-03  0:05:30 1618
   383  2.6617e-03  6.7745e-03  5.9832e-03  1.3663e+00  2.5967e-03  0:04:24 1617
   384  2.5634e-03  6.8840e-03  6.0770e-03  1.3648e+00  2.4982e-03  0:03:31 1616
   385  2.4700e-03  6.9955e-03  6.1472e-03  1.3577e+00  2.4046e-03  0:02:49 1615

  iter  continuity  x-velocity  y-velocity  z-velocity      energy     time/iter
   386  2.3852e-03  7.0811e-03  6.1929e-03  1.3469e+00  2.3198e-03  0:02:15 1614
   387  2.3194e-03  7.1746e-03  6.2137e-03  1.3345e+00  2.2542e-03  0:01:48 1613
   388  2.2680e-03  7.2681e-03  6.2111e-03  1.3147e+00  2.2033e-03  0:06:49 1612
   389  2.2372e-03  7.3528e-03  6.1869e-03  1.3006e+00  2.1733e-03  0:05:27 1611
   390  2.2192e-03  7.4225e-03  6.1416e-03  1.2887e+00  2.1562e-03  0:04:21 1610
   391  2.2097e-03  7.4786e-03  6.0765e-03  1.2729e+00  2.1476e-03  0:03:29 1609
   392  2.2069e-03  7.5007e-03  5.9951e-03  1.2558e+00  2.1456e-03  0:02:47 1608
   393  2.2103e-03  7.5075e-03  5.8971e-03  1.2419e+00  2.1495e-03  0:02:14 1607
   394  2.2177e-03  7.5047e-03  5.7845e-03  1.2297e+00  2.1573e-03  0:01:47 1606
   395  2.2296e-03  7.4850e-03  5.6614e-03  1.2161e+00  2.1694e-03  0:06:46 1605
   396  2.2473e-03  7.4520e-03  5.5308e-03  1.2048e+00  2.1872e-03  0:05:25 1604

  iter  continuity  x-velocity  y-velocity  z-velocity      energy     time/iter
   397  2.2703e-03  7.4067e-03  5.3960e-03  1.1954e+00  2.2101e-03  0:04:20 1603
   398  2.3020e-03  7.3502e-03  5.2598e-03  1.1888e+00  2.2417e-03  0:03:28 1602
   399  2.3465e-03  7.2842e-03  5.1242e-03  1.1832e+00  2.2862e-03  0:02:46 1601
   400  2.4015e-03  7.2011e-03  4.9902e-03  1.1794e+00  2.3413e-03  0:02:13 1600
   401  2.4602e-03  7.1119e-03  4.8627e-03  1.1743e+00  2.3999e-03  0:01:46 1599
   402  2.5235e-03  7.0153e-03  4.7442e-03  1.1693e+00  2.4632e-03  0:06:44 1598
   403  2.5908e-03  6.9108e-03  4.6362e-03  1.1620e+00  2.5303e-03  0:05:23 1597
   404  2.6627e-03  6.8085e-03  4.5402e-03  1.1526e+00  2.6021e-03  0:04:19 1596
   405  2.7380e-03  6.7008e-03  4.4593e-03  1.1391e+00  2.6772e-03  0:03:27 1595
   406  2.8163e-03  6.6020e-03  4.3957e-03  1.1233e+00  2.7554e-03  0:02:45 1594
   407  2.8943e-03  6.5087e-03  4.3500e-03  1.1070e+00  2.8331e-03  0:02:12 1593

  iter  continuity  x-velocity  y-velocity  z-velocity      energy     time/iter
   408  2.9725e-03  6.4182e-03  4.3228e-03  1.0910e+00  2.9110e-03  0:01:46 1592
   409  3.0504e-03  6.3351e-03  4.3141e-03  1.0766e+00  2.9887e-03  0:06:43 1591
   410  3.1272e-03  6.2593e-03  4.3216e-03  1.0630e+00  3.0652e-03  0:05:22 1590
   411  3.2023e-03  6.1901e-03  4.3470e-03  1.0525e+00  3.1400e-03  0:04:17 1589
   412  3.2684e-03  6.1280e-03  4.3898e-03  1.0400e+00  3.2058e-03  0:03:26 1588
   413  3.3262e-03  6.0661e-03  4.4481e-03  1.0286e+00  3.2631e-03  0:02:45 1587
   414  3.3809e-03  6.0104e-03  4.5196e-03  1.0163e+00  3.3174e-03  0:02:12 1586
   415  3.4500e-03  5.9636e-03  4.6030e-03  1.0028e+00  3.3866e-03  0:01:45 1585
   416  3.5307e-03  5.9135e-03  4.6961e-03  9.8939e-01  3.4677e-03  0:06:41 1584
   417  3.5520e-03  5.8694e-03  4.7981e-03  9.7498e-01  3.4886e-03  0:05:20 1583
   418  3.5310e-03  5.8339e-03  4.9058e-03  9.6349e-01  3.4665e-03  0:04:16 1582

  iter  continuity  x-velocity  y-velocity  z-velocity      energy     time/iter
   419  3.5037e-03  5.8167e-03  5.0170e-03  9.5235e-01  3.4382e-03  0:03:25 1581
   420  3.4601e-03  5.8022e-03  5.1299e-03  9.3537e-01  3.3936e-03  0:02:44 1580
   421  3.4113e-03  5.7901e-03  5.2428e-03  9.1317e-01  3.3437e-03  0:02:11 1579
   422  3.3589e-03  5.7810e-03  5.3533e-03  8.8901e-01  3.2905e-03  0:01:45 1578
   423  3.3001e-03  5.7821e-03  5.4601e-03  8.6821e-01  3.2310e-03  0:06:39 1577
   424  3.2357e-03  5.7962e-03  5.5628e-03  8.5360e-01  3.1660e-03  0:05:19 1576
   425  3.1719e-03  5.8208e-03  5.6592e-03  8.4148e-01  3.1018e-03  0:04:15 1575
   426  3.1079e-03  5.8548e-03  5.7484e-03  8.3002e-01  3.0377e-03  0:03:24 1574
   427  3.0435e-03  5.8918e-03  5.8298e-03  8.2395e-01  2.9734e-03  0:02:43 1573
   428  2.9831e-03  5.9350e-03  5.9022e-03  8.1628e-01  2.9133e-03  0:02:10 1572
   429  2.9227e-03  5.9838e-03  5.9644e-03  8.0604e-01  2.8534e-03  0:01:44 1571

  iter  continuity  x-velocity  y-velocity  z-velocity      energy     time/iter
   430  2.8572e-03  6.0425e-03  6.0155e-03  7.9543e-01  2.7884e-03  0:01:23 1570
   431  2.7949e-03  6.1055e-03  6.0547e-03  7.8417e-01  2.7269e-03  0:06:20 1569
   432  2.7384e-03  6.1820e-03  6.0812e-03  7.7179e-01  2.6714e-03  0:05:04 1568
   433  2.6719e-03  6.2548e-03  6.0942e-03  7.5818e-01  2.6059e-03  0:04:03 1567
   434  2.5999e-03  6.3248e-03  6.0931e-03  7.4410e-01  2.5347e-03  0:03:14 1566
   435  2.5149e-03  6.3743e-03  6.0760e-03  7.3131e-01  2.4502e-03  0:02:35 1565
   436  2.4352e-03  6.4275e-03  6.0489e-03  7.2068e-01  2.3712e-03  0:02:04 1564
   437  2.3591e-03  6.4867e-03  6.0107e-03  7.1234e-01  2.2960e-03  0:01:39 1563
   438  2.2860e-03  6.5478e-03  5.9613e-03  7.0248e-01  2.2238e-03  0:06:32 1562
   439  2.2140e-03  6.6073e-03  5.9010e-03  6.9283e-01  2.1527e-03  0:05:13 1561
   440  2.1410e-03  6.6608e-03  5.8308e-03  6.8322e-01  2.0806e-03  0:04:10 1560

  iter  continuity  x-velocity  y-velocity  z-velocity      energy     time/iter
   441  2.0653e-03  6.6953e-03  5.7516e-03  6.7303e-01  2.0056e-03  0:03:20 1559
   442  1.9919e-03  6.7266e-03  5.6644e-03  6.6339e-01  1.9329e-03  0:02:40 1558
   443  1.9110e-03  6.7472e-03  5.5693e-03  6.5413e-01  1.8524e-03  0:02:08 1557
   444  1.8332e-03  6.7467e-03  5.4701e-03  6.4416e-01  1.7749e-03  0:01:42 1556
   445  1.7696e-03  6.7484e-03  5.3625e-03  6.3361e-01  1.7120e-03  0:01:22 1555
   446  1.7091e-03  6.7445e-03  5.2490e-03  6.2326e-01  1.6523e-03  0:06:16 1554
   447  1.6536e-03  6.7331e-03  5.1415e-03  6.1193e-01  1.5975e-03  0:05:01 1553
   448  1.6002e-03  6.7080e-03  5.0258e-03  5.9646e-01  1.5448e-03  0:04:00 1552
   449  1.5387e-03  6.6622e-03  4.8876e-03  5.7741e-01  1.4835e-03  0:03:12 1551
   450  1.4865e-03  6.6012e-03  4.7580e-03  5.6201e-01  1.4316e-03  0:02:34 1550
   451  1.4536e-03  6.5421e-03  4.6309e-03  5.5046e-01  1.3997e-03  0:02:03 1549

  iter  continuity  x-velocity  y-velocity  z-velocity      energy     time/iter
   452  1.4287e-03  6.4799e-03  4.5033e-03  5.3941e-01  1.3760e-03  0:01:38 1548
   453  1.4153e-03  6.4173e-03  4.3767e-03  5.3370e-01  1.3639e-03  0:06:28 1547
   454  1.4051e-03  6.3355e-03  4.2517e-03  5.3115e-01  1.3551e-03  0:05:10 1546
   455  1.4086e-03  6.2539e-03  4.1297e-03  5.3015e-01  1.3602e-03  0:04:08 1545
   456  1.3914e-03  6.1674e-03  4.0097e-03  5.2762e-01  1.3437e-03  0:03:18 1544
   457  1.3825e-03  6.0800e-03  3.8948e-03  5.2559e-01  1.3357e-03  0:02:38 1543
   458  1.3872e-03  5.9826e-03  3.7839e-03  5.2243e-01  1.3415e-03  0:02:07 1542
   459  1.3781e-03  5.8846e-03  3.6779e-03  5.2025e-01  1.3330e-03  0:01:41 1541
   460  1.3579e-03  5.7895e-03  3.5770e-03  5.1695e-01  1.3127e-03  0:06:29 1540
   461  1.3418e-03  5.6969e-03  3.4827e-03  5.1204e-01  1.2966e-03  0:05:11 1539
   462  1.3336e-03  5.6008e-03  3.3943e-03  5.0696e-01  1.2885e-03  0:04:09 1538

  iter  continuity  x-velocity  y-velocity  z-velocity      energy     time/iter
   463  1.3332e-03  5.5095e-03  3.3085e-03  5.0355e-01  1.2884e-03  0:03:19 1537
   464  1.3346e-03  5.4159e-03  3.2339e-03  5.0066e-01  1.2899e-03  0:02:39 1536
   465  1.3418e-03  5.3280e-03  3.1686e-03  4.9700e-01  1.2974e-03  0:02:07 1535
   466  1.3545e-03  5.2449e-03  3.1102e-03  4.9234e-01  1.3103e-03  0:06:48 1534
   467  1.3652e-03  5.1575e-03  3.0573e-03  4.8730e-01  1.3211e-03  0:05:26 1533
   468  1.3804e-03  5.0691e-03  3.0105e-03  4.7910e-01  1.3363e-03  0:04:21 1532
   469  1.3996e-03  4.9878e-03  2.9719e-03  4.7009e-01  1.3557e-03  0:03:29 1531
   470  1.4092e-03  4.9036e-03  2.9397e-03  4.6052e-01  1.3649e-03  0:02:47 1530
   471  1.4199e-03  4.8279e-03  2.9145e-03  4.5008e-01  1.3754e-03  0:02:13 1529
   472  1.4279e-03  4.7606e-03  2.8949e-03  4.3981e-01  1.3829e-03  0:01:47 1528
   473  1.4396e-03  4.7019e-03  2.8811e-03  4.2967e-01  1.3942e-03  0:06:31 1527

  iter  continuity  x-velocity  y-velocity  z-velocity      energy     time/iter
   474  1.4548e-03  4.6429e-03  2.8728e-03  4.1945e-01  1.4090e-03  0:05:12 1526
   475  1.4698e-03  4.5922e-03  2.8701e-03  4.0899e-01  1.4235e-03  0:04:10 1525
   476  1.4845e-03  4.5465e-03  2.8722e-03  3.9727e-01  1.4376e-03  0:03:20 1524
   477  1.4897e-03  4.4946e-03  2.8800e-03  3.8548e-01  1.4421e-03  0:02:40 1523
   478  1.5051e-03  4.4530e-03  2.8926e-03  3.7344e-01  1.4569e-03  0:02:08 1522
   479  1.5234e-03  4.4178e-03  2.9091e-03  3.6124e-01  1.4747e-03  0:01:42 1521
   480  1.5346e-03  4.3613e-03  2.9286e-03  3.4891e-01  1.4851e-03  0:01:22 1520
   481  1.5392e-03  4.3032e-03  2.9521e-03  3.3772e-01  1.4887e-03  0:06:09 1519
   482  1.5463e-03  4.2541e-03  2.9802e-03  3.2699e-01  1.4949e-03  0:04:55 1518
   483  1.5491e-03  4.2080e-03  3.0111e-03  3.1617e-01  1.4966e-03  0:03:56 1517
   484  1.5575e-03  4.1742e-03  3.0450e-03  3.0587e-01  1.5042e-03  0:03:09 1516

  iter  continuity  x-velocity  y-velocity  z-velocity      energy     time/iter
   485  1.5651e-03  4.1444e-03  3.0815e-03  2.9621e-01  1.5108e-03  0:02:31 1515
   486  1.5719e-03  4.1187e-03  3.1205e-03  2.8734e-01  1.5167e-03  0:02:01 1514
   487  1.5803e-03  4.0975e-03  3.1621e-03  2.7918e-01  1.5244e-03  0:06:39 1513
   488  1.5875e-03  4.0785e-03  3.2062e-03  2.7149e-01  1.5307e-03  0:05:19 1512
   489  1.5944e-03  4.0617e-03  3.2539e-03  2.6409e-01  1.5368e-03  0:04:15 1511
   490  1.6015e-03  4.0374e-03  3.3018e-03  2.5701e-01  1.5432e-03  0:03:24 1510
   491  1.6176e-03  4.0129e-03  3.3499e-03  2.5100e-01  1.5588e-03  0:02:43 1509
   492  1.6105e-03  3.9930e-03  3.3988e-03  2.4509e-01  1.5505e-03  0:02:10 1508
   493  1.6107e-03  3.9909e-03  3.4496e-03  2.3927e-01  1.5498e-03  0:01:44 1507
   494  1.6038e-03  3.9839e-03  3.5003e-03  2.3356e-01  1.5418e-03  0:01:23 1506
   495  1.5992e-03  3.9808e-03  3.5525e-03  2.2811e-01  1.5363e-03  0:06:08 1505

  iter  continuity  x-velocity  y-velocity  z-velocity      energy     time/iter
   496  1.6006e-03  3.9864e-03  3.6039e-03  2.2301e-01  1.5370e-03  0:04:54 1504
   497  1.6008e-03  3.9976e-03  3.6545e-03  2.1809e-01  1.5365e-03  0:03:55 1503
   498  1.5968e-03  4.0125e-03  3.7045e-03  2.1329e-01  1.5317e-03  0:03:08 1502
   499  1.5934e-03  4.0337e-03  3.7539e-03  2.0856e-01  1.5277e-03  0:02:30 1501
   500  1.5777e-03  4.0456e-03  3.8024e-03  2.0399e-01  1.5109e-03  0:02:00 1500
   501  1.5875e-03  4.0755e-03  3.8503e-03  1.9954e-01  1.5208e-03  0:01:36 1499
   502  1.5787e-03  4.0904e-03  3.8942e-03  1.9529e-01  1.5113e-03  0:06:16 1498
   503  1.5730e-03  4.1203e-03  3.9364e-03  1.9120e-01  1.5051e-03  0:05:01 1497
   504  1.5681e-03  4.1572e-03  3.9766e-03  1.8714e-01  1.4999e-03  0:04:01 1496
   505  1.5465e-03  4.1902e-03  4.0143e-03  1.8303e-01  1.4772e-03  0:03:12 1495
   506  1.5395e-03  4.2225e-03  4.0493e-03  1.7892e-01  1.4700e-03  0:02:34 1494

  iter  continuity  x-velocity  y-velocity  z-velocity      energy     time/iter
   507  1.5342e-03  4.2538e-03  4.0817e-03  1.7485e-01  1.4645e-03  0:02:03 1493
   508  1.5228e-03  4.2828e-03  4.1118e-03  1.7062e-01  1.4529e-03  0:01:38 1492
   509  1.5096e-03  4.3134e-03  4.1385e-03  1.6644e-01  1.4394e-03  0:06:17 1491
   510  1.4980e-03  4.3453e-03  4.1621e-03  1.6237e-01  1.4276e-03  0:05:01 1490
   511  1.4789e-03  4.3720e-03  4.1822e-03  1.5849e-01  1.4081e-03  0:04:01 1489
   512  1.4752e-03  4.4007e-03  4.1999e-03  1.5478e-01  1.4047e-03  0:03:13 1488
   513  1.4752e-03  4.4301e-03  4.2140e-03  1.5120e-01  1.4054e-03  0:02:34 1487
   514  1.4763e-03  4.4642e-03  4.2253e-03  1.4756e-01  1.4071e-03  0:02:03 1486
   515  1.4665e-03  4.4966e-03  4.2320e-03  1.4387e-01  1.3976e-03  0:01:38 1485
   516  1.4313e-03  4.5091e-03  4.2348e-03  1.4019e-01  1.3614e-03  0:06:15 1484
   517  1.4172e-03  4.5243e-03  4.2353e-03  1.3665e-01  1.3474e-03  0:05:00 1483

  iter  continuity  x-velocity  y-velocity  z-velocity      energy     time/iter
   518  1.4071e-03  4.5377e-03  4.2326e-03  1.3284e-01  1.3376e-03  0:04:00 1482
   519  1.3954e-03  4.5512e-03  4.2271e-03  1.2920e-01  1.3262e-03  0:03:12 1481
   520  1.3812e-03  4.5644e-03  4.2186e-03  1.2577e-01  1.3123e-03  0:02:33 1480
   521  1.3656e-03  4.5754e-03  4.2074e-03  1.2256e-01  1.2969e-03  0:02:03 1479
   522  1.3574e-03  4.5901e-03  4.1929e-03  1.1971e-01  1.2894e-03  0:01:38 1478
   523  1.3533e-03  4.5975e-03  4.1761e-03  1.1711e-01  1.2861e-03  0:06:14 1477
   524  1.3490e-03  4.5946e-03  4.1577e-03  1.1422e-01  1.2827e-03  0:04:59 1476
   525  1.3537e-03  4.5843e-03  4.1372e-03  1.1104e-01  1.2886e-03  0:03:59 1475
   526  1.3419e-03  4.5715e-03  4.1130e-03  1.0800e-01  1.2774e-03  0:03:11 1474
   527  1.3195e-03  4.5616e-03  4.0875e-03  1.0502e-01  1.2550e-03  0:02:33 1473
   528  1.2944e-03  4.5512e-03  4.0612e-03  1.0211e-01  1.2297e-03  0:02:02 1472

  iter  continuity  x-velocity  y-velocity  z-velocity      energy     time/iter
   529  1.2776e-03  4.5394e-03  4.0342e-03  9.9273e-02  1.2133e-03  0:01:38 1471
   530  1.2596e-03  4.5250e-03  4.0061e-03  9.6490e-02  1.1955e-03  0:06:12 1470
   531  1.2442e-03  4.5077e-03  3.9771e-03  9.3707e-02  1.1805e-03  0:04:57 1469
   532  1.2318e-03  4.4911e-03  3.9475e-03  9.1096e-02  1.1687e-03  0:03:58 1468
   533  1.2195e-03  4.4747e-03  3.9178e-03  8.8479e-02  1.1571e-03  0:03:10 1467
   534  1.2143e-03  4.4570e-03  3.8870e-03  8.5895e-02  1.1529e-03  0:02:32 1466
   535  1.2061e-03  4.4369e-03  3.8553e-03  8.3422e-02  1.1456e-03  0:02:01 1465
   536  1.1924e-03  4.4163e-03  3.8239e-03  8.1204e-02  1.1325e-03  0:01:37 1464
   537  1.1840e-03  4.3966e-03  3.7922e-03  7.9147e-02  1.1251e-03  0:06:10 1463
   538  1.1810e-03  4.3770e-03  3.7602e-03  7.7147e-02  1.1232e-03  0:04:56 1462
   539  1.1718e-03  4.3566e-03  3.7278e-03  7.5192e-02  1.1150e-03  0:03:57 1461

  iter  continuity  x-velocity  y-velocity  z-velocity      energy     time/iter
   540  1.1533e-03  4.3362e-03  3.6952e-03  7.3329e-02  1.0970e-03  0:03:09 1460
   541  1.1370e-03  4.3171e-03  3.6625e-03  7.1815e-02  1.0815e-03  0:02:31 1459
   542  1.1234e-03  4.2992e-03  3.6297e-03  7.0027e-02  1.0687e-03  0:02:01 1458
   543  1.1106e-03  4.2833e-03  3.5967e-03  6.8236e-02  1.0568e-03  0:06:28 1457
   544  1.1012e-03  4.2701e-03  3.5633e-03  6.6465e-02  1.0486e-03  0:05:10 1456
   545  1.0975e-03  4.2574e-03  3.5290e-03  6.4330e-02  1.0463e-03  0:04:08 1455
   546  1.0988e-03  4.2468e-03  3.4946e-03  6.2990e-02  1.0494e-03  0:03:18 1454
   547  1.1131e-03  4.2361e-03  3.4607e-03  6.2539e-02  1.0659e-03  0:02:39 1453
   548  1.1278e-03  4.2274e-03  3.4255e-03  6.1923e-02  1.0828e-03  0:02:07 1452
   549  1.1345e-03  4.2197e-03  3.3884e-03  6.0494e-02  1.0914e-03  0:01:41 1451
   550  1.1404e-03  4.2136e-03  3.3511e-03  5.9130e-02  1.0990e-03  0:06:11 1450

  iter  continuity  x-velocity  y-velocity  z-velocity      energy     time/iter
   551  1.1504e-03  4.2088e-03  3.3132e-03  5.7962e-02  1.1109e-03  0:04:57 1449
   552  1.1644e-03  4.2046e-03  3.2744e-03  5.6960e-02  1.1270e-03  0:03:57 1448
   553  1.1823e-03  4.2016e-03  3.2345e-03  5.6100e-02  1.1469e-03  0:03:10 1447
   554  1.1980e-03  4.1997e-03  3.1938e-03  5.5483e-02  1.1646e-03  0:02:32 1446
   555  1.2260e-03  4.1983e-03  3.1520e-03  5.4755e-02  1.1947e-03  0:02:01 1445
   556  1.2616e-03  4.1968e-03  3.1089e-03  5.3926e-02  1.2324e-03  0:01:37 1444
   557  1.3047e-03  4.1956e-03  3.0642e-03  5.3384e-02  1.2777e-03  0:06:06 1443
   558  1.3593e-03  4.1976e-03  3.0197e-03  5.2982e-02  1.3344e-03  0:04:53 1442
   559  1.4140e-03  4.2002e-03  2.9721e-03  5.2682e-02  1.3911e-03  0:03:54 1441
   560  1.4800e-03  4.2079e-03  2.9295e-03  5.2433e-02  1.4590e-03  0:03:07 1440
   561  1.5582e-03  4.2212e-03  2.9152e-03  5.2467e-02  1.5390e-03  0:02:30 1439

  iter  continuity  x-velocity  y-velocity  z-velocity      energy     time/iter
   562  1.6203e-03  4.2226e-03  2.8874e-03  5.2993e-02  1.6025e-03  0:02:00 1438
   563  1.6819e-03  4.2233e-03  2.8169e-03  5.3298e-02  1.6655e-03  0:01:36 1437
   564  1.7814e-03  4.2334e-03  2.7457e-03  5.3727e-02  1.7663e-03  0:06:04 1436
   565  1.8395e-03  4.2453e-03  2.6863e-03  5.4116e-02  1.8255e-03  0:04:51 1435
   566  1.8834e-03  4.2563e-03  2.6328e-03  5.4874e-02  1.8701e-03  0:03:52 1434
   567  1.8984e-03  4.2687e-03  2.5813e-03  5.5467e-02  1.8859e-03  0:03:06 1433
   568  1.8985e-03  4.2766e-03  2.5334e-03  5.5856e-02  1.8866e-03  0:02:29 1432
   569  1.8779e-03  4.2803e-03  2.4855e-03  5.6228e-02  1.8666e-03  0:01:59 1431
   570  1.8481e-03  4.2762e-03  2.4383e-03  5.5878e-02  1.8372e-03  0:01:35 1430
   571  1.8226e-03  4.2707e-03  2.3915e-03  5.5741e-02  1.8122e-03  0:06:02 1429
   572  1.7909e-03  4.2624e-03  2.3448e-03  5.5544e-02  1.7809e-03  0:04:49 1428

  iter  continuity  x-velocity  y-velocity  z-velocity      energy     time/iter
   573  1.7575e-03  4.2464e-03  2.2987e-03  5.6092e-02  1.7479e-03  0:03:51 1427
   574  1.7331e-03  4.2327e-03  2.2520e-03  5.7031e-02  1.7240e-03  0:03:05 1426
   575  1.7222e-03  4.2180e-03  2.2050e-03  5.8638e-02  1.7134e-03  0:02:28 1425
   576  1.7118e-03  4.2022e-03  2.1581e-03  5.8499e-02  1.7034e-03  0:01:58 1424
   577  1.6781e-03  4.1845e-03  2.1105e-03  5.8760e-02  1.6701e-03  0:01:34 1423
   578  1.6812e-03  4.1707e-03  2.0649e-03  5.9417e-02  1.6736e-03  0:06:00 1422
   579  1.6727e-03  4.1484e-03  2.0212e-03  6.0091e-02  1.6654e-03  0:04:48 1421
   580  1.6522e-03  4.1180e-03  1.9749e-03  6.0765e-02  1.6453e-03  0:03:50 1420
   581  1.6285e-03  4.0814e-03  1.9269e-03  6.1592e-02  1.6218e-03  0:03:04 1419
   582  1.6065e-03  4.0400e-03  1.8780e-03  6.2315e-02  1.6001e-03  0:02:27 1418
   583  1.5905e-03  3.9969e-03  1.8285e-03  6.2575e-02  1.5843e-03  0:01:58 1417

  iter  continuity  x-velocity  y-velocity  z-velocity      energy     time/iter
   584  1.5691e-03  3.9521e-03  1.7818e-03  6.2738e-02  1.5632e-03  0:01:34 1416
   585  1.5427e-03  3.9104e-03  1.7344e-03  6.2553e-02  1.5370e-03  0:05:58 1415
   586  1.5174e-03  3.8709e-03  1.6887e-03  6.2998e-02  1.5119e-03  0:04:46 1414
   587  1.4895e-03  3.8295e-03  1.6449e-03  6.2233e-02  1.4842e-03  0:03:49 1413
   588  1.4528e-03  3.7815e-03  1.6058e-03  6.1513e-02  1.4477e-03  0:03:03 1412
   589  1.4096e-03  3.7331e-03  1.5686e-03  6.0557e-02  1.4047e-03  0:02:26 1411
   590  1.3617e-03  3.6871e-03  1.5337e-03  6.0586e-02  1.3570e-03  0:01:57 1410
   591  1.3058e-03  3.6409e-03  1.5006e-03  6.0403e-02  1.3013e-03  0:01:33 1409
   592  1.2460e-03  3.6004e-03  1.4717e-03  5.9732e-02  1.2416e-03  0:05:56 1408
   593  1.1897e-03  3.5693e-03  1.4432e-03  5.9535e-02  1.1855e-03  0:04:45 1407
   594  1.1190e-03  3.5383e-03  1.4156e-03  5.9205e-02  1.1150e-03  0:03:48 1406

  iter  continuity  x-velocity  y-velocity  z-velocity      energy     time/iter
   595  1.0701e-03  3.5051e-03  1.3893e-03  5.8855e-02  1.0662e-03  0:03:02 1405
   596  1.0432e-03  3.4695e-03  1.3636e-03  5.7544e-02  1.0396e-03  0:02:26 1404
   597  9.9196e-04  3.4205e-03  1.3346e-03  5.5765e-02  9.8845e-04  0:01:56 1403
   598  9.3084e-04  3.3633e-03  1.3030e-03  5.4131e-02  9.2750e-04  0:01:33 1402
   599  8.6888e-04  3.3095e-03  1.2688e-03  5.3725e-02  8.6574e-04  0:05:55 1401
   600  7.8339e-04  3.2386e-03  1.2318e-03  5.4731e-02  7.8044e-04  0:04:43 1400
   601  7.0770e-04  3.1652e-03  1.1959e-03  5.5934e-02  7.0498e-04  0:03:47 1399
   602  6.3678e-04  3.0880e-03  1.1606e-03  5.7123e-02  6.3431e-04  0:03:01 1398
   603  5.6965e-04  3.0132e-03  1.1297e-03  5.9069e-02  5.6748e-04  0:02:25 1397
   604  5.3431e-04  2.9457e-03  1.0961e-03  6.1280e-02  5.3249e-04  0:01:56 1396
   605  5.0236e-04  2.8826e-03  1.0583e-03  6.3207e-02  5.0087e-04  0:01:33 1395

  iter  continuity  x-velocity  y-velocity  z-velocity      energy     time/iter
   606  4.7822e-04  2.8276e-03  1.0200e-03  6.4534e-02  4.7705e-04  0:05:53 1394
   607  4.6582e-04  2.7780e-03  9.8262e-04  6.5926e-02  4.6494e-04  0:04:42 1393
   608  4.5553e-04  2.7328e-03  9.4559e-04  6.6076e-02  4.5494e-04  0:03:45 1392
   609  4.4273e-04  2.6911e-03  9.0907e-04  6.5203e-02  4.4243e-04  0:03:00 1391
   610  4.2878e-04  2.6555e-03  8.7350e-04  6.3646e-02  4.2878e-04  0:02:24 1390
   611  4.1299e-04  2.6217e-03  8.3866e-04  6.1472e-02  4.1327e-04  0:01:55 1389
   612  3.9832e-04  2.5899e-03  8.0526e-04  5.9272e-02  3.9888e-04  0:01:32 1388
   613  3.7936e-04  2.5600e-03  7.7202e-04  5.7723e-02  3.8019e-04  0:05:51 1387
   614  3.6001e-04  2.5316e-03  7.4030e-04  5.6865e-02  3.6110e-04  0:04:41 1386
   615  3.4331e-04  2.5041e-03  7.1065e-04  5.5338e-02  3.4461e-04  0:03:44 1385
   616  3.3043e-04  2.4780e-03  6.8322e-04  5.3761e-02  3.3187e-04  0:02:59 1384

  iter  continuity  x-velocity  y-velocity  z-velocity      energy     time/iter
   617  3.2683e-04  2.4538e-03  6.5860e-04  5.2341e-02  3.2829e-04  0:02:23 1383
   618  3.3357e-04  2.4315e-03  6.3628e-04  5.1506e-02  3.3491e-04  0:01:55 1382
   619  3.4671e-04  2.4119e-03  6.1655e-04  5.1034e-02  3.4781e-04  0:01:32 1381
   620  3.6373e-04  2.3953e-03  5.9954e-04  5.0755e-02  3.6452e-04  0:05:49 1380
   621  3.8370e-04  2.3801e-03  5.8519e-04  5.1470e-02  3.8413e-04  0:04:39 1379
   622  4.0492e-04  2.3658e-03  5.7277e-04  5.2042e-02  4.0497e-04  0:03:43 1378
   623  4.2644e-04  2.3518e-03  5.6218e-04  5.2021e-02  4.2607e-04  0:02:58 1377
   624  4.5102e-04  2.3379e-03  5.5350e-04  5.1715e-02  4.5023e-04  0:02:23 1376
   625  4.7074e-04  2.3247e-03  5.4682e-04  5.1433e-02  4.6951e-04  0:01:54 1375
   626  4.7832e-04  2.3129e-03  5.4252e-04  5.1198e-02  4.7663e-04  0:01:31 1374
   627  4.9425e-04  2.3030e-03  5.4114e-04  5.1167e-02  4.9207e-04  0:05:47 1373

  iter  continuity  x-velocity  y-velocity  z-velocity      energy     time/iter
   628  5.1394e-04  2.2953e-03  5.4321e-04  5.1043e-02  5.1126e-04  0:04:38 1372
   629  5.3405e-04  2.2903e-03  5.4885e-04  5.1007e-02  5.3084e-04  0:03:42 1371
   630  5.5288e-04  2.2882e-03  5.5867e-04  5.1225e-02  5.4914e-04  0:02:58 1370
   631  5.7066e-04  2.2887e-03  5.7297e-04  5.1672e-02  5.6636e-04  0:02:22 1369
   632  5.8738e-04  2.2912e-03  5.9079e-04  5.2394e-02  5.8251e-04  0:01:53 1368
   633  6.0383e-04  2.2952e-03  6.1150e-04  5.3493e-02  5.9836e-04  0:01:31 1367
   634  6.2108e-04  2.3003e-03  6.3452e-04  5.4517e-02  6.1503e-04  0:05:46 1366
   635  6.4009e-04  2.3062e-03  6.6078e-04  5.5479e-02  6.3347e-04  0:04:36 1365
   636  6.6312e-04  2.3124e-03  6.8983e-04  5.6368e-02  6.5596e-04  0:03:41 1364
   637  6.8873e-04  2.3185e-03  7.2136e-04  5.7091e-02  6.8108e-04  0:02:57 1363
   638  7.1565e-04  2.3246e-03  7.5520e-04  5.7564e-02  7.0753e-04  0:02:21 1362

  iter  continuity  x-velocity  y-velocity  z-velocity      energy     time/iter
   639  7.4131e-04  2.3305e-03  7.9111e-04  5.7645e-02  7.3274e-04  0:01:53 1361
   640  7.6416e-04  2.3364e-03  8.2882e-04  5.7269e-02  7.5514e-04  0:01:30 1360
   641  7.8298e-04  2.3422e-03  8.6807e-04  5.6590e-02  7.7351e-04  0:05:44 1359
   642  7.9687e-04  2.3476e-03  9.0852e-04  5.5672e-02  7.8693e-04  0:04:35 1358
   643  8.0564e-04  2.3527e-03  9.4988e-04  5.4552e-02  7.9519e-04  0:03:40 1357
   644  8.0969e-04  2.3575e-03  9.9189e-04  5.3351e-02  7.9873e-04  0:02:56 1356
   645  8.0979e-04  2.3619e-03  1.0343e-03  5.2166e-02  7.9830e-04  0:02:20 1355
   646  8.0680e-04  2.3659e-03  1.0769e-03  5.1039e-02  7.9477e-04  0:01:52 1354
   647  8.0141e-04  2.3697e-03  1.1191e-03  5.0080e-02  7.8882e-04  0:01:30 1353
   648  7.9420e-04  2.3731e-03  1.1611e-03  4.9240e-02  7.8105e-04  0:05:42 1352
   649  7.8580e-04  2.3763e-03  1.2025e-03  4.8553e-02  7.7210e-04  0:04:34 1351

  iter  continuity  x-velocity  y-velocity  z-velocity      energy     time/iter
   650  7.7683e-04  2.3793e-03  1.2431e-03  4.8014e-02  7.6258e-04  0:03:39 1350
   651  7.6810e-04  2.3820e-03  1.2824e-03  4.7761e-02  7.5332e-04  0:02:55 1349
   652  7.6038e-04  2.3845e-03  1.3203e-03  4.7603e-02  7.4512e-04  0:02:20 1348
   653  7.5473e-04  2.3868e-03  1.3566e-03  4.7673e-02  7.3903e-04  0:01:52 1347
   654  7.5158e-04  2.3892e-03  1.3911e-03  4.8083e-02  7.3551e-04  0:01:29 1346
   655  7.5056e-04  2.3920e-03  1.4236e-03  4.8589e-02  7.3419e-04  0:05:40 1345
   656  7.5071e-04  2.3950e-03  1.4543e-03  4.9107e-02  7.3409e-04  0:04:32 1344
   657  7.5067e-04  2.3985e-03  1.4828e-03  4.9500e-02  7.3380e-04  0:03:38 1343
   658  7.4900e-04  2.4027e-03  1.5090e-03  4.9633e-02  7.3188e-04  0:02:54 1342
   659  7.4470e-04  2.4074e-03  1.5329e-03  4.9468e-02  7.2730e-04  0:02:19 1341
   660  7.3743e-04  2.4125e-03  1.5544e-03  4.9225e-02  7.1971e-04  0:01:51 1340

  iter  continuity  x-velocity  y-velocity  z-velocity      energy     time/iter
   661  7.2766e-04  2.4178e-03  1.5733e-03  4.8657e-02  7.0958e-04  0:01:29 1339
   662  7.1669e-04  2.4229e-03  1.5898e-03  4.7781e-02  6.9824e-04  0:01:11 1338
   663  7.0661e-04  2.4278e-03  1.6037e-03  4.6879e-02  6.8782e-04  0:05:24 1337
   664  6.9763e-04  2.4323e-03  1.6152e-03  4.5880e-02  6.7854e-04  0:04:19 1336
   665  6.8986e-04  2.4365e-03  1.6244e-03  4.5161e-02  6.7051e-04  0:03:27 1335
   666  6.8346e-04  2.4406e-03  1.6314e-03  4.4824e-02  6.6392e-04  0:02:46 1334
   667  6.7844e-04  2.4444e-03  1.6364e-03  4.4809e-02  6.5875e-04  0:02:12 1333
   668  6.7425e-04  2.4481e-03  1.6394e-03  4.4973e-02  6.5443e-04  0:01:46 1332
   669  6.7044e-04  2.4515e-03  1.6408e-03  4.5311e-02  6.5054e-04  0:01:25 1331
   670  6.6670e-04  2.4545e-03  1.6406e-03  4.5809e-02  6.4671e-04  0:05:34 1330
   671  6.6323e-04  2.4569e-03  1.6391e-03  4.6942e-02  6.4319e-04  0:04:27 1329

  iter  continuity  x-velocity  y-velocity  z-velocity      energy     time/iter
   672  6.5964e-04  2.4588e-03  1.6363e-03  4.6744e-02  6.3953e-04  0:03:33 1328
   673  6.5819e-04  2.4601e-03  1.6325e-03  4.7548e-02  6.3811e-04  0:02:50 1327
   674  6.5848e-04  2.4611e-03  1.6279e-03  4.8664e-02  6.3847e-04  0:02:16 1326
   675  6.5993e-04  2.4620e-03  1.6224e-03  4.9923e-02  6.4005e-04  0:01:49 1325
   676  6.6153e-04  2.4629e-03  1.6162e-03  5.0897e-02  6.4179e-04  0:01:27 1324
   677  6.6231e-04  2.4641e-03  1.6093e-03  5.1487e-02  6.4272e-04  0:05:34 1323
   678  6.6119e-04  2.4651e-03  1.6018e-03  5.1426e-02  6.4171e-04  0:04:27 1322
   679  6.5832e-04  2.4662e-03  1.5935e-03  5.0904e-02  6.3893e-04  0:03:34 1321
   680  6.5368e-04  2.4671e-03  1.5846e-03  4.9989e-02  6.3436e-04  0:02:51 1320
   681  6.4796e-04  2.4677e-03  1.5752e-03  4.9004e-02  6.2870e-04  0:02:16 1319
   682  6.4126e-04  2.4679e-03  1.5652e-03  4.8328e-02  6.2207e-04  0:01:49 1318

  iter  continuity  x-velocity  y-velocity  z-velocity      energy     time/iter
   683  6.3407e-04  2.4677e-03  1.5548e-03  4.8202e-02  6.1496e-04  0:05:51 1317
   684  6.2699e-04  2.4672e-03  1.5441e-03  4.8699e-02  6.0798e-04  0:04:40 1316
   685  6.2047e-04  2.4662e-03  1.5332e-03  4.9803e-02  6.0160e-04  0:03:44 1315
   686  6.1494e-04  2.4652e-03  1.5222e-03  5.1352e-02  5.9626e-04  0:02:59 1314
   687  6.1043e-04  2.4638e-03  1.5111e-03  5.3255e-02  5.9197e-04  0:02:23 1313
   688  6.0612e-04  2.4621e-03  1.5001e-03  5.5232e-02  5.8792e-04  0:06:17 1312
   689  6.0457e-04  2.4601e-03  1.4892e-03  5.7238e-02  5.8670e-04  0:05:01 1311
   690  6.0465e-04  2.4577e-03  1.4784e-03  5.9725e-02  5.8717e-04  0:04:01 1310
   691  6.0550e-04  2.4550e-03  1.4677e-03  6.2523e-02  5.8843e-04  0:03:13 1309
   692  6.0799e-04  2.4522e-03  1.4572e-03  6.5574e-02  5.9138e-04  0:02:34 1308
   693  6.1154e-04  2.4495e-03  1.4467e-03  6.8831e-02  5.9540e-04  0:02:03 1307

  iter  continuity  x-velocity  y-velocity  z-velocity      energy     time/iter
   694  6.1463e-04  2.4471e-03  1.4361e-03  7.1911e-02  5.9895e-04  0:01:38 1306
   695  6.1633e-04  2.4448e-03  1.4254e-03  7.4523e-02  6.0108e-04  0:05:40 1305
   696  6.1531e-04  2.4429e-03  1.4143e-03  7.6425e-02  6.0042e-04  0:04:31 1304
   697  6.0966e-04  2.4410e-03  1.4027e-03  7.7380e-02  5.9505e-04  0:03:37 1303
   698  5.9882e-04  2.4390e-03  1.3905e-03  7.7545e-02  5.8437e-04  0:02:53 1302
   699  5.8625e-04  2.4368e-03  1.3775e-03  7.6517e-02  5.7194e-04  0:02:19 1301
   700  5.7415e-04  2.4343e-03  1.3639e-03  7.4903e-02  5.5999e-04  0:01:51 1300
   701  5.6421e-04  2.4314e-03  1.3496e-03  7.3432e-02  5.5026e-04  0:01:29 1299
   702  5.5796e-04  2.4284e-03  1.3346e-03  7.3440e-02  5.4432e-04  0:05:30 1298
   703  5.5612e-04  2.4252e-03  1.3190e-03  7.3930e-02  5.4287e-04  0:04:24 1297
   704  5.5696e-04  2.4220e-03  1.3030e-03  7.4585e-02  5.4417e-04  0:03:31 1296

  iter  continuity  x-velocity  y-velocity  z-velocity      energy     time/iter
   705  5.5994e-04  2.4187e-03  1.2865e-03  7.5834e-02  5.4764e-04  0:02:49 1295
   706  5.6431e-04  2.4154e-03  1.2696e-03  7.7927e-02  5.5251e-04  0:02:15 1294
   707  5.6948e-04  2.4122e-03  1.2526e-03  8.0646e-02  5.5818e-04  0:01:48 1293
   708  5.7613e-04  2.4092e-03  1.2355e-03  8.4907e-02  5.6535e-04  0:01:26 1292
   709  5.8388e-04  2.4065e-03  1.2184e-03  9.2565e-02  5.7361e-04  0:05:27 1291
   710  5.9001e-04  2.4044e-03  1.2014e-03  1.0143e-01  5.8022e-04  0:04:21 1290
   711  5.9541e-04  2.4031e-03  1.1844e-03  1.1116e-01  5.8608e-04  0:03:29 1289
   712  6.0071e-04  2.4027e-03  1.1676e-03  1.2172e-01  5.9181e-04  0:02:47 1288
   713  6.0606e-04  2.4035e-03  1.1509e-03  1.3312e-01  5.9759e-04  0:02:14 1287
   714  6.1162e-04  2.4055e-03  1.1342e-03  1.4273e-01  6.0359e-04  0:01:47 1286
   715  6.1766e-04  2.4085e-03  1.1174e-03  1.5383e-01  6.1006e-04  0:01:25 1285

  iter  continuity  x-velocity  y-velocity  z-velocity      energy     time/iter
   716  6.2377e-04  2.4124e-03  1.1006e-03  1.6571e-01  6.1660e-04  0:05:25 1284
   717  6.2909e-04  2.4171e-03  1.0835e-03  1.7683e-01  6.2235e-04  0:04:20 1283
   718  6.3491e-04  2.4224e-03  1.0663e-03  1.8770e-01  6.2859e-04  0:03:28 1282
   719  6.4189e-04  2.4278e-03  1.0488e-03  1.9866e-01  6.3599e-04  0:02:46 1281
   720  6.5184e-04  2.4334e-03  1.0311e-03  2.1004e-01  6.4637e-04  0:02:13 1280
   721  6.6534e-04  2.4390e-03  1.0133e-03  2.2221e-01  6.6031e-04  0:01:46 1279
   722  6.8528e-04  2.4446e-03  9.9540e-04  2.3498e-01  6.8070e-04  0:01:25 1278
   723  7.0836e-04  2.4505e-03  9.7738e-04  2.4880e-01  7.0420e-04  0:05:23 1277
   724  7.2534e-04  2.4566e-03  9.5932e-04  2.6542e-01  7.2155e-04  0:04:18 1276
   725  7.3843e-04  2.4626e-03  9.4129e-04  2.8653e-01  7.3496e-04  0:03:27 1275
   726  7.5078e-04  2.4687e-03  9.2339e-04  3.0723e-01  7.4761e-04  0:02:45 1274

  iter  continuity  x-velocity  y-velocity  z-velocity      energy     time/iter
   727  7.6430e-04  2.4752e-03  9.0571e-04  3.1521e-01  7.6141e-04  0:02:12 1273
   728  7.6905e-04  2.4826e-03  8.8818e-04  3.1162e-01  7.6641e-04  0:01:45 1272
   729  7.6380e-04  2.4912e-03  8.7079e-04  3.0875e-01  7.6139e-04  0:01:24 1271
   730  7.5273e-04  2.5010e-03  8.5392e-04  3.1239e-01  7.5051e-04  0:05:21 1270
   731  7.3951e-04  2.5115e-03  8.3760e-04  3.2442e-01  7.3748e-04  0:04:17 1269
   732  7.2882e-04  2.5222e-03  8.2183e-04  3.4325e-01  7.2696e-04  0:03:25 1268
   733  7.2130e-04  2.5330e-03  8.0657e-04  3.6796e-01  7.1961e-04  0:02:44 1267
   734  7.1136e-04  2.5425e-03  7.9135e-04  3.9360e-01  7.0980e-04  0:02:11 1266
   735  7.0004e-04  2.5507e-03  7.7608e-04  4.2123e-01  6.9859e-04  0:01:45 1265
   736  6.8588e-04  2.5577e-03  7.6073e-04  4.4768e-01  6.8453e-04  0:05:37 1264
   737  6.7248e-04  2.5631e-03  7.4467e-04  4.6844e-01  6.7120e-04  0:04:29 1263

  iter  continuity  x-velocity  y-velocity  z-velocity      energy     time/iter
   738  6.6316e-04  2.5669e-03  7.2767e-04  4.8711e-01  6.6192e-04  0:03:35 1262
   739  6.5052e-04  2.5672e-03  7.1045e-04  4.9840e-01  6.4930e-04  0:02:52 1261
   740  6.3447e-04  2.5636e-03  6.9265e-04  4.7693e-01  6.3324e-04  0:02:17 1260
   741  6.2333e-04  2.5612e-03  6.7372e-04  4.5642e-01  6.2206e-04  0:01:50 1259
   742  6.1414e-04  2.5583e-03  6.5437e-04  4.4015e-01  6.1281e-04  0:05:39 1258
   743  6.0773e-04  2.5543e-03  6.3528e-04  4.3967e-01  6.0630e-04  0:04:31 1257
   744  6.0332e-04  2.5483e-03  6.1694e-04  4.5528e-01  6.0177e-04  0:03:37 1256
   745  5.9982e-04  2.5422e-03  5.9952e-04  4.8074e-01  5.9813e-04  0:02:53 1255
   746  5.9752e-04  2.5352e-03  5.8382e-04  5.0906e-01  5.9567e-04  0:02:19 1254
   747  5.9630e-04  2.5278e-03  5.6999e-04  5.3450e-01  5.9426e-04  0:01:51 1253
   748  5.9604e-04  2.5188e-03  5.5811e-04  5.4837e-01  5.9379e-04  0:01:29 1252

  iter  continuity  x-velocity  y-velocity  z-velocity      energy     time/iter
   749  6.0211e-04  2.5102e-03  5.4844e-04  5.5215e-01  5.9966e-04  0:05:21 1251
   750  6.0728e-04  2.5020e-03  5.4134e-04  5.4819e-01  6.0461e-04  0:04:17 1250
   751  6.1087e-04  2.4944e-03  5.3715e-04  5.4142e-01  6.0799e-04  0:03:25 1249
   752  6.1292e-04  2.4872e-03  5.3599e-04  5.3059e-01  6.0981e-04  0:02:44 1248
   753  6.1314e-04  2.4806e-03  5.3788e-04  5.1859e-01  6.0980e-04  0:02:11 1247
   754  6.1246e-04  2.4741e-03  5.4277e-04  5.0504e-01  6.0889e-04  0:01:45 1246
   755  6.1130e-04  2.4678e-03  5.5048e-04  4.9092e-01  6.0749e-04  0:01:24 1245
   756  6.1000e-04  2.4618e-03  5.6070e-04  4.7672e-01  6.0596e-04  0:05:16 1244
   757  6.0852e-04  2.4566e-03  5.7315e-04  4.6064e-01  6.0424e-04  0:04:12 1243
   758  6.0638e-04  2.4516e-03  5.8734e-04  4.4217e-01  6.0187e-04  0:03:22 1242
   759  6.0404e-04  2.4470e-03  6.0282e-04  4.2135e-01  5.9930e-04  0:02:41 1241

  iter  continuity  x-velocity  y-velocity  z-velocity      energy     time/iter
   760  6.0144e-04  2.4429e-03  6.1922e-04  3.9748e-01  5.9647e-04  0:02:09 1240
   761  5.9941e-04  2.4388e-03  6.3617e-04  3.7160e-01  5.9422e-04  0:01:43 1239
   762  5.9736e-04  2.4351e-03  6.5329e-04  3.4332e-01  5.9196e-04  0:01:22 1238
   763  5.9509e-04  2.4318e-03  6.7034e-04  3.1335e-01  5.8947e-04  0:05:13 1237
   764  5.9334e-04  2.4292e-03  6.8723e-04  2.8154e-01  5.8752e-04  0:04:10 1236
   765  5.9369e-04  2.4270e-03  7.0368e-04  2.5212e-01  5.8769e-04  0:03:20 1235
   766  5.9392e-04  2.4253e-03  7.1958e-04  2.2707e-01  5.8774e-04  0:02:40 1234
   767  5.9468e-04  2.4243e-03  7.3482e-04  2.0921e-01  5.8833e-04  0:02:08 1233
   768  5.9580e-04  2.4239e-03  7.4942e-04  1.9773e-01  5.8929e-04  0:01:42 1232
   769  5.9790e-04  2.4244e-03  7.6327e-04  1.9048e-01  5.9125e-04  0:01:22 1231
   770  6.0063e-04  2.4254e-03  7.7640e-04  1.8566e-01  5.9384e-04  0:05:11 1230

  iter  continuity  x-velocity  y-velocity  z-velocity      energy     time/iter
   771  6.0376e-04  2.4268e-03  7.8888e-04  1.8352e-01  5.9683e-04  0:04:09 1229
   772  6.0760e-04  2.4287e-03  8.0071e-04  1.8516e-01  6.0055e-04  0:03:19 1228
   773  6.1071e-04  2.4312e-03  8.1191e-04  1.9077e-01  6.0353e-04  0:02:39 1227
   774  6.1476e-04  2.4343e-03  8.2256e-04  2.0137e-01  6.0746e-04  0:02:07 1226
   775  6.1784e-04  2.4375e-03  8.3230e-04  2.1610e-01  6.1041e-04  0:01:42 1225
   776  6.1974e-04  2.4411e-03  8.4153e-04  2.3338e-01  6.1218e-04  0:01:21 1224
   777  6.2046e-04  2.4451e-03  8.5016e-04  2.5173e-01  6.1274e-04  0:05:10 1223
   778  6.1942e-04  2.4492e-03  8.5814e-04  2.7033e-01  6.1153e-04  0:04:07 1222
   779  6.1702e-04  2.4534e-03  8.6568e-04  2.8522e-01  6.0894e-04  0:03:18 1221
   780  6.1428e-04  2.4580e-03  8.7284e-04  2.9566e-01  6.0599e-04  0:02:38 1220
   781  6.1176e-04  2.4627e-03  8.7974e-04  3.0256e-01  6.0327e-04  0:02:06 1219

  iter  continuity  x-velocity  y-velocity  z-velocity      energy     time/iter
   782  6.1060e-04  2.4675e-03  8.8631e-04  3.0664e-01  6.0192e-04  0:01:41 1218
   783  6.1189e-04  2.4720e-03  8.9255e-04  3.0352e-01  6.0305e-04  0:01:21 1217
   784  6.1406e-04  2.4761e-03  8.9862e-04  2.9769e-01  6.0506e-04  0:05:08 1216
   785  6.1868e-04  2.4807e-03  9.0457e-04  2.9069e-01  6.0954e-04  0:04:06 1215
   786  6.2605e-04  2.4848e-03  9.1059e-04  2.7985e-01  6.1682e-04  0:03:17 1214
   787  6.3583e-04  2.4884e-03  9.1678e-04  2.6603e-01  6.2653e-04  0:02:37 1213
   788  6.4783e-04  2.4922e-03  9.2318e-04  2.4519e-01  6.3849e-04  0:02:06 1212
   789  6.6096e-04  2.4962e-03  9.2982e-04  2.3145e-01  6.5159e-04  0:01:40 1211
   790  6.7513e-04  2.5005e-03  9.3670e-04  2.1964e-01  6.6574e-04  0:01:20 1210
   791  6.8888e-04  2.5055e-03  9.4394e-04  2.0787e-01  6.7947e-04  0:05:06 1209
   792  7.0141e-04  2.5116e-03  9.5166e-04  1.9787e-01  6.9196e-04  0:04:05 1208

  iter  continuity  x-velocity  y-velocity  z-velocity      energy     time/iter
   793  7.1002e-04  2.5188e-03  9.6008e-04  1.9078e-01  7.0049e-04  0:03:15 1207
   794  7.1712e-04  2.5262e-03  9.6919e-04  1.8980e-01  7.0749e-04  0:02:36 1206
   795  7.2282e-04  2.5341e-03  9.7890e-04  1.9367e-01  7.1307e-04  0:02:05 1205
   796  7.2611e-04  2.5416e-03  9.8937e-04  2.0205e-01  7.1622e-04  0:01:40 1204
   797  7.2976e-04  2.5494e-03  1.0006e-03  2.1504e-01  7.1974e-04  0:01:20 1203
   798  7.3304e-04  2.5586e-03  1.0122e-03  2.3218e-01  7.2289e-04  0:05:04 1202
   799  7.3513e-04  2.5684e-03  1.0244e-03  2.5202e-01  7.2484e-04  0:04:03 1201
   800  7.3669e-04  2.5786e-03  1.0372e-03  2.7244e-01  7.2625e-04  0:03:14 1200
   801  7.3864e-04  2.5877e-03  1.0503e-03  2.9045e-01  7.2807e-04  0:02:35 1199
   802  7.4430e-04  2.5962e-03  1.0636e-03  3.0600e-01  7.3364e-04  0:02:04 1198
   803  7.4949e-04  2.6044e-03  1.0772e-03  3.1829e-01  7.3874e-04  0:01:39 1197

  iter  continuity  x-velocity  y-velocity  z-velocity      energy     time/iter
   804  7.5422e-04  2.6109e-03  1.0905e-03  3.2774e-01  7.4339e-04  0:01:19 1196
   805  7.5882e-04  2.6181e-03  1.1035e-03  3.3897e-01  7.4791e-04  0:05:02 1195
   806  7.6268e-04  2.6267e-03  1.1162e-03  3.4959e-01  7.5169e-04  0:04:02 1194
   807  7.6523e-04  2.6355e-03  1.1280e-03  3.5897e-01  7.5414e-04  0:03:13 1193
   808  7.6662e-04  2.6421e-03  1.1392e-03  3.6050e-01  7.5544e-04  0:02:34 1192
   809  7.6993e-04  2.6482e-03  1.1497e-03  3.6476e-01  7.5868e-04  0:02:03 1191
[...]
  1791  1.0536e-05  6.2634e-05  1.0320e-05  1.4282e+00  1.0489e-05  0:00:44  209
  1792  1.0924e-05  6.3531e-05  1.0327e-05  1.4927e+00  1.0879e-05  0:00:35  208
  1793  1.1300e-05  6.4490e-05  1.0337e-05  1.5569e+00  1.1256e-05  0:00:28  207

  iter  continuity  x-velocity  y-velocity  z-velocity      energy     time/iter
  1794  1.1656e-05  6.5506e-05  1.0354e-05  1.6204e+00  1.1613e-05  0:00:22  206
  1795  1.1983e-05  6.6574e-05  1.0387e-05  1.6831e+00  1.1942e-05  0:00:18  205
  1796  1.2298e-05  6.7689e-05  1.0420e-05  1.7444e+00  1.2257e-05  0:00:14  204
  1797  1.2589e-05  6.8840e-05  1.0453e-05  1.8037e+00  1.2549e-05  0:00:11  203
  1798  1.2512e-05  6.9909e-05  1.0461e-05  1.8597e+00  1.2472e-05  0:00:09  202
  1799  1.2532e-05  7.1022e-05  1.0560e-05  1.8896e+00  1.2491e-05  0:00:07  201
  1800  1.2763e-05  7.2229e-05  1.0625e-05  1.8879e+00  1.2722e-05  0:00:06  200
  1801  1.3017e-05  7.3498e-05  1.0675e-05  1.8688e+00  1.2978e-05  0:00:04  199
  1802  1.3270e-05  7.4796e-05  1.0733e-05  1.8419e+00  1.3231e-05  0:00:04  198
  1803  1.3541e-05  7.6100e-05  1.0803e-05  1.8139e+00  1.3503e-05  0:00:03  197
  1804  1.3835e-05  7.7386e-05  1.0896e-05  1.7900e+00  1.3797e-05  0:00:41  196

  iter  continuity  x-velocity  y-velocity  z-velocity      energy     time/iter
  1805  1.4161e-05  7.8640e-05  1.1009e-05  1.7748e+00  1.4123e-05  0:00:33  195
  1806  1.4528e-05  7.9853e-05  1.1140e-05  1.7733e+00  1.4491e-05  0:00:26  194
  1807  1.4937e-05  8.1016e-05  1.1284e-05  1.7890e+00  1.4901e-05  0:00:21  193
  1808  1.5392e-05  8.2122e-05  1.1441e-05  1.8248e+00  1.5357e-05  0:00:17  192
  1809  1.5910e-05  8.3178e-05  1.1613e-05  1.8829e+00  1.5876e-05  0:00:13  191
  1810  1.6486e-05  8.4181e-05  1.1797e-05  1.9648e+00  1.6452e-05  0:00:11  190
  1811  1.7117e-05  8.5122e-05  1.1988e-05  2.0703e+00  1.7084e-05  0:00:08  189
  1812  1.7798e-05  8.6014e-05  1.2184e-05  2.1991e+00  1.7766e-05  0:00:07  188
  1813  1.8525e-05  8.6874e-05  1.2382e-05  2.3497e+00  1.8494e-05  0:00:05  187
  1814  1.9298e-05  8.7723e-05  1.2582e-05  2.5189e+00  1.9267e-05  0:00:04  186
  1815  2.0096e-05  8.8562e-05  1.2781e-05  2.6965e+00  2.0066e-05  0:00:03  185

  iter  continuity  x-velocity  y-velocity  z-velocity      energy     time/iter
  1816  2.0894e-05  8.9400e-05  1.2983e-05  2.8379e+00  2.0864e-05  0:00:03  184
  1817  2.1707e-05  9.0252e-05  1.3174e-05  2.9686e+00  2.1678e-05  0:00:02  183
  1818  2.2513e-05  9.1131e-05  1.3355e-05  3.1266e+00  2.2485e-05  0:00:38  182
  1819  2.3368e-05  9.1953e-05  1.3538e-05  3.2970e+00  2.3340e-05  0:00:30  181
  1820  2.4201e-05  9.2829e-05  1.4109e-05  3.4685e+00  2.4174e-05  0:00:24  180
  1821  2.4885e-05  9.3770e-05  1.4484e-05  3.6352e+00  2.4857e-05  0:00:19  179
  1822  2.5483e-05  9.4731e-05  1.4684e-05  3.7993e+00  2.5455e-05  0:00:15  178
  1823  2.6127e-05  9.5687e-05  1.4746e-05  3.9486e+00  2.6100e-05  0:00:12  177
  1824  2.6621e-05  9.6671e-05  1.4703e-05  4.0866e+00  2.6594e-05  0:00:10  176
  1825  2.6917e-05  9.7664e-05  1.4603e-05  4.2121e+00  2.6890e-05  0:00:08  175
  1826  2.7070e-05  9.8640e-05  1.4478e-05  4.3217e+00  2.7042e-05  0:00:06  174

  iter  continuity  x-velocity  y-velocity  z-velocity      energy     time/iter
  1827  2.7099e-05  9.9582e-05  1.4343e-05  4.4185e+00  2.7071e-05  0:00:05  173
  1828  2.6970e-05  1.0028e-04  1.3979e-05  4.4933e+00  2.6942e-05  0:00:04  172
  1829  2.7051e-05  1.0039e-04  1.3784e-05  4.5298e+00  2.7022e-05  0:00:03  171
  1830  2.7020e-05  1.0058e-04  1.3693e-05  4.5581e+00  2.6991e-05  0:00:02  170
  1831  2.6751e-05  1.0082e-04  1.3620e-05  4.5821e+00  2.6721e-05  0:00:36  169
  1832  2.6320e-05  1.0100e-04  1.3529e-05  4.5903e+00  2.6289e-05  0:00:28  168
  1833  2.5776e-05  1.0107e-04  1.3430e-05  4.5705e+00  2.5745e-05  0:00:23  167
  1834  2.5143e-05  1.0100e-04  1.3342e-05  4.5343e+00  2.5111e-05  0:00:18  166
  1835  2.1119e-05  1.0097e-04  1.3131e-05  4.4836e+00  2.1082e-05  0:00:14  165
  1836  1.9537e-05  1.0183e-04  1.3225e-05  4.3694e+00  1.9498e-05  0:00:11  164
  1837  1.9123e-05  1.0265e-04  1.3323e-05  4.2175e+00  1.9083e-05  0:00:09  163

  iter  continuity  x-velocity  y-velocity  z-velocity      energy     time/iter
  1838  1.8982e-05  1.0334e-04  1.3398e-05  4.0529e+00  1.8942e-05  0:00:07  162
  1839  1.8845e-05  1.0395e-04  1.3485e-05  3.8867e+00  1.8804e-05  0:00:06  161
  1840  1.8660e-05  1.0426e-04  1.3633e-05  3.7268e+00  1.8618e-05  0:00:05  160
  1841  1.8438e-05  1.0475e-04  1.4031e-05  3.5878e+00  1.8395e-05  0:00:04  159
  1842  1.8198e-05  1.0513e-04  1.4523e-05  3.4724e+00  1.8153e-05  0:00:03  158
  1843  1.7941e-05  1.0535e-04  1.5016e-05  3.3823e+00  1.7894e-05  0:00:02  157
  1844  1.7655e-05  1.0535e-04  1.5464e-05  3.3133e+00  1.7607e-05  0:00:02  156
  1845  1.7332e-05  1.0514e-04  1.5848e-05  3.2774e+00  1.7282e-05  0:00:32  155
  1846  1.6964e-05  1.0469e-04  1.6161e-05  3.2656e+00  1.6913e-05  0:00:26  154
  1847  1.6550e-05  1.0400e-04  1.6400e-05  3.2853e+00  1.6497e-05  0:00:20  153
  1848  1.6091e-05  1.0308e-04  1.6565e-05  3.2999e+00  1.6035e-05  0:00:16  152

  iter  continuity  x-velocity  y-velocity  z-velocity      energy     time/iter
  1849  1.5590e-05  1.0194e-04  1.6656e-05  3.3196e+00  1.5531e-05  0:00:13  151
  1850  1.5070e-05  1.0060e-04  1.6683e-05  3.3503e+00  1.5009e-05  0:00:10  150
  1851  1.4510e-05  9.9052e-05  1.6645e-05  3.3810e+00  1.4446e-05  0:00:08  149
  1852  1.3920e-05  9.7310e-05  1.6543e-05  3.4111e+00  1.3853e-05  0:00:06  148
  1853  1.3311e-05  9.5400e-05  1.6385e-05  3.4375e+00  1.3240e-05  0:00:05  147
  1854  1.2692e-05  9.3344e-05  1.6181e-05  3.4562e+00  1.2617e-05  0:00:04  146
  1855  1.2074e-05  9.1167e-05  1.5942e-05  3.4652e+00  1.1995e-05  0:00:03  145
  1856  1.1466e-05  8.8893e-05  1.5681e-05  3.4614e+00  1.1382e-05  0:00:03  144
  1857  1.0873e-05  8.6546e-05  1.5408e-05  3.4464e+00  1.0784e-05  0:00:02  143
  1858  1.0304e-05  8.4152e-05  1.5135e-05  3.4174e+00  1.0209e-05  0:00:02  142
  1859  9.7620e-06  8.1734e-05  1.4870e-05  3.3779e+00  9.6618e-06  0:00:29  141

  iter  continuity  x-velocity  y-velocity  z-velocity      energy     time/iter
  1860  9.2508e-06  7.9314e-05  1.4621e-05  3.3243e+00  9.1446e-06  0:00:23  140
  1861  8.7727e-06  7.6914e-05  1.4394e-05  3.2528e+00  8.6600e-06  0:00:19  139
  1862  8.3287e-06  7.4556e-05  1.4193e-05  3.1743e+00  8.2094e-06  0:00:15  138
  1863  7.9192e-06  7.2257e-05  1.4022e-05  3.0893e+00  7.7930e-06  0:00:12  137
  1864  7.5436e-06  7.0035e-05  1.3880e-05  2.9982e+00  7.4105e-06  0:00:09  136
  1865  7.2015e-06  6.7905e-05  1.3768e-05  2.9022e+00  7.0612e-06  0:00:07  135
  1866  6.8917e-06  6.5880e-05  1.3684e-05  2.8012e+00  6.7442e-06  0:00:06  134
  1867  6.6127e-06  6.3971e-05  1.3625e-05  2.6908e+00  6.4581e-06  0:00:05  133
  1868  6.3631e-06  6.2185e-05  1.3589e-05  2.5723e+00  6.2015e-06  0:00:04  132
  1869  6.1423e-06  6.0527e-05  1.3574e-05  2.4509e+00  5.9738e-06  0:00:03  131
  1870  5.9479e-06  5.9000e-05  1.3576e-05  2.3303e+00  5.7728e-06  0:00:02  130

  iter  continuity  x-velocity  y-velocity  z-velocity      energy     time/iter
  1871  5.7774e-06  5.7602e-05  1.3592e-05  2.2165e+00  5.5960e-06  0:00:02  129
  1872  5.6298e-06  5.6331e-05  1.3620e-05  2.1094e+00  5.4425e-06  0:00:27  128
  1873  5.5037e-06  5.5181e-05  1.3656e-05  2.0082e+00  5.3108e-06  0:00:21  127
  1874  5.3973e-06  5.4147e-05  1.3700e-05  1.9141e+00  5.1992e-06  0:00:17  126
  1875  5.3082e-06  5.3220e-05  1.3750e-05  1.8260e+00  5.1054e-06  0:00:14  125
  1876  5.2354e-06  5.2392e-05  1.3802e-05  1.7414e+00  5.0282e-06  0:00:11  124
  1877  5.1773e-06  5.1653e-05  1.3857e-05  1.6605e+00  4.9661e-06  0:00:09  123
  1878  5.1323e-06  5.0996e-05  1.3913e-05  1.5836e+00  4.9175e-06  0:00:07  122
  1879  5.0991e-06  5.0409e-05  1.3968e-05  1.5108e+00  4.8811e-06  0:00:05  121
  1880  5.0766e-06  4.9884e-05  1.4023e-05  1.4417e+00  4.8555e-06  0:00:04  120
  1881  5.0637e-06  4.9413e-05  1.4077e-05  1.3781e+00  4.8398e-06  0:00:03  119

  iter  continuity  x-velocity  y-velocity  z-velocity      energy     time/iter
  1882  5.0595e-06  4.8988e-05  1.4128e-05  1.3209e+00  4.8329e-06  0:00:03  118
  1883  5.0631e-06  4.8601e-05  1.4177e-05  1.2672e+00  4.8340e-06  0:00:02  117
  1884  5.0738e-06  4.8246e-05  1.4224e-05  1.2171e+00  4.8423e-06  0:00:25  116
  1885  5.0911e-06  4.7917e-05  1.4269e-05  1.1718e+00  4.8572e-06  0:00:20  115
  1886  5.1151e-06  4.7610e-05  1.4312e-05  1.1269e+00  4.8789e-06  0:00:16  114
  1887  5.1449e-06  4.7320e-05  1.4353e-05  1.0830e+00  4.9064e-06  0:00:12  113
  1888  5.1802e-06  4.7044e-05  1.4392e-05  1.0415e+00  4.9393e-06  0:00:10  112
  1889  5.2207e-06  4.6778e-05  1.4431e-05  1.0011e+00  4.9773e-06  0:00:08  111
  1890  5.2662e-06  4.6522e-05  1.4470e-05  9.6345e-01  5.0204e-06  0:00:06  110
  1891  5.3165e-06  4.6271e-05  1.4509e-05  9.2856e-01  5.0681e-06  0:00:05  109
  1892  5.3714e-06  4.6026e-05  1.4551e-05  8.9541e-01  5.1203e-06  0:00:04  108

  iter  continuity  x-velocity  y-velocity  z-velocity      energy     time/iter
  1893  5.4306e-06  4.5783e-05  1.4595e-05  8.6429e-01  5.1768e-06  0:00:03  107
  1894  5.4940e-06  4.5543e-05  1.4642e-05  8.3504e-01  5.2373e-06  0:00:02  106
  1895  5.5610e-06  4.5304e-05  1.4695e-05  8.0748e-01  5.3014e-06  0:00:02  105
  1896  5.6317e-06  4.5067e-05  1.4754e-05  7.8065e-01  5.3691e-06  0:00:02  104
  1897  5.7056e-06  4.4830e-05  1.4821e-05  7.5507e-01  5.4398e-06  0:00:22  103
  1898  5.7822e-06  4.4594e-05  1.4896e-05  7.2986e-01  5.5132e-06  0:00:17  102
  1899  5.8611e-06  4.4358e-05  1.4980e-05  7.0536e-01  5.5887e-06  0:00:14  101
  1900  5.9417e-06  4.4122e-05  1.5075e-05  6.8209e-01  5.6659e-06  0:00:11  100
  1901  6.0235e-06  4.3886e-05  1.5182e-05  6.5958e-01  5.7442e-06  0:00:09   99
  1902  6.1059e-06  4.3651e-05  1.5302e-05  6.3770e-01  5.8230e-06  0:00:07   98
  1903  6.1882e-06  4.3415e-05  1.5435e-05  6.1662e-01  5.9016e-06  0:00:05   97

  iter  continuity  x-velocity  y-velocity  z-velocity      energy     time/iter
  1904  6.2697e-06  4.3180e-05  1.5581e-05  5.9645e-01  5.9794e-06  0:00:04   96
  1905  6.3499e-06  4.2945e-05  1.5742e-05  5.7706e-01  6.0557e-06  0:00:03   95
  1906  6.4279e-06  4.2711e-05  1.5917e-05  5.5847e-01  6.1299e-06  0:00:03   94
  1907  6.5031e-06  4.2478e-05  1.6106e-05  5.4084e-01  6.2012e-06  0:00:02   93
  1908  6.5749e-06  4.2245e-05  1.6309e-05  5.2409e-01  6.2690e-06  0:00:02   92
  1909  6.6426e-06  4.2014e-05  1.6526e-05  5.0778e-01  6.3327e-06  0:00:01   91
  1910  6.7057e-06  4.1784e-05  1.6756e-05  4.9196e-01  6.3918e-06  0:00:01   90
  1911  6.7634e-06  4.1556e-05  1.6998e-05  4.7682e-01  6.4456e-06  0:00:19   89
  1912  6.8155e-06  4.1330e-05  1.7252e-05  4.6258e-01  6.4936e-06  0:00:15   88
  1913  6.8614e-06  4.1107e-05  1.7514e-05  4.4921e-01  6.5356e-06  0:00:12   87
  1914  6.9008e-06  4.0886e-05  1.7786e-05  4.3655e-01  6.5710e-06  0:00:09   86

  iter  continuity  x-velocity  y-velocity  z-velocity      energy     time/iter
  1915  6.9334e-06  4.0669e-05  1.8064e-05  4.2463e-01  6.5998e-06  0:00:07   85
  1916  6.9590e-06  4.0455e-05  1.8347e-05  4.1314e-01  6.6216e-06  0:00:06   84
  1917  6.9776e-06  4.0246e-05  1.8634e-05  4.0187e-01  6.6365e-06  0:00:05   83
  1918  6.9890e-06  4.0041e-05  1.8922e-05  3.9093e-01  6.6443e-06  0:00:04   82
  1919  6.9935e-06  3.9840e-05  1.9210e-05  3.8055e-01  6.6453e-06  0:00:03   81
  1920  6.9911e-06  3.9645e-05  1.9495e-05  3.7059e-01  6.6396e-06  0:00:02   80
  1921  6.9821e-06  3.9456e-05  1.9776e-05  3.6112e-01  6.6274e-06  0:00:02   79
  1922  6.9669e-06  3.9272e-05  2.0050e-05  3.5189e-01  6.6091e-06  0:00:01   78
  1923  6.9458e-06  3.9095e-05  2.0315e-05  3.4287e-01  6.5853e-06  0:00:01   77
  1924  6.9195e-06  3.8923e-05  2.0570e-05  3.3394e-01  6.5562e-06  0:00:16   76
  1925  6.8883e-06  3.8757e-05  2.0813e-05  3.2522e-01  6.5226e-06  0:00:13   75

  iter  continuity  x-velocity  y-velocity  z-velocity      energy     time/iter
  1926  6.8531e-06  3.8598e-05  2.1042e-05  3.1692e-01  6.4851e-06  0:00:10   74
  1927  6.8143e-06  3.8443e-05  2.1254e-05  3.0898e-01  6.4442e-06  0:00:08   73
  1928  6.7727e-06  3.8294e-05  2.1450e-05  3.0139e-01  6.4007e-06  0:00:06   72
  1929  6.7289e-06  3.8150e-05  2.1627e-05  2.9394e-01  6.3554e-06  0:00:05   71
  1930  6.6838e-06  3.8010e-05  2.1784e-05  2.8671e-01  6.3088e-06  0:00:04   70
  1931  6.6380e-06  3.7872e-05  2.1920e-05  2.7971e-01  6.2618e-06  0:00:03   69
  1932  6.5922e-06  3.7737e-05  2.2035e-05  2.7280e-01  6.2150e-06  0:00:02   68
  1933  6.5471e-06  3.7604e-05  2.2128e-05  2.6601e-01  6.1690e-06  0:00:02   67
  1934  6.5033e-06  3.7471e-05  2.2199e-05  2.5943e-01  6.1246e-06  0:00:01   66
  1935  6.4615e-06  3.7337e-05  2.2248e-05  2.5309e-01  6.0823e-06  0:00:01   65
  1936  6.4221e-06  3.7201e-05  2.2275e-05  2.4702e-01  6.0427e-06  0:00:01   64

  iter  continuity  x-velocity  y-velocity  z-velocity      energy     time/iter
  1937  6.3858e-06  3.7062e-05  2.2281e-05  2.4111e-01  6.0062e-06  0:00:01   63
  1938  6.3529e-06  3.6920e-05  2.2265e-05  2.3531e-01  5.9733e-06  0:00:13   62
  1939  6.3237e-06  3.6772e-05  2.2230e-05  2.2968e-01  5.9444e-06  0:00:10   61
  1940  6.2987e-06  3.6619e-05  2.2176e-05  2.2419e-01  5.9196e-06  0:00:08   60
  1941  6.2780e-06  3.6459e-05  2.2105e-05  2.1875e-01  5.8993e-06  0:00:06   59
  1942  6.2619e-06  3.6292e-05  2.2018e-05  2.1341e-01  5.8836e-06  0:00:05   58
  1943  6.2503e-06  3.6118e-05  2.1918e-05  2.0825e-01  5.8726e-06  0:00:04   57
  1944  6.2434e-06  3.5935e-05  2.1805e-05  2.0333e-01  5.8663e-06  0:00:03   56
  1945  6.2411e-06  3.5744e-05  2.1683e-05  1.9856e-01  5.8646e-06  0:00:02   55
  1946  6.2432e-06  3.5544e-05  2.1552e-05  1.9396e-01  5.8674e-06  0:00:02   54
  1947  6.2497e-06  3.5336e-05  2.1416e-05  1.8956e-01  5.8746e-06  0:00:01   53

  iter  continuity  x-velocity  y-velocity  z-velocity      energy     time/iter
  1948  6.2603e-06  3.5120e-05  2.1276e-05  1.8525e-01  5.8858e-06  0:00:01   52
  1949  6.2747e-06  3.4897e-05  2.1135e-05  1.8102e-01  5.9009e-06  0:00:01   51
  1950  6.2926e-06  3.4666e-05  2.0996e-05  1.7683e-01  5.9194e-06  0:00:01   50
  1951  6.3135e-06  3.4428e-05  2.0859e-05  1.7269e-01  5.9409e-06  0:00:10   49
  1952  6.3372e-06  3.4185e-05  2.0728e-05  1.6867e-01  5.9651e-06  0:00:08   48
  1953  6.3630e-06  3.3936e-05  2.0603e-05  1.6478e-01  5.9914e-06  0:00:06   47
  1954  6.3905e-06  3.3683e-05  2.0488e-05  1.6092e-01  6.0193e-06  0:00:05   46
  1955  6.4192e-06  3.3426e-05  2.0383e-05  1.5716e-01  6.0484e-06  0:00:04   45
  1956  6.4486e-06  3.3167e-05  2.0290e-05  1.5345e-01  6.0780e-06  0:00:03   44
  1957  6.4782e-06  3.2906e-05  2.0210e-05  1.4992e-01  6.1077e-06  0:00:02   43
  1958  6.5071e-06  3.2643e-05  2.0144e-05  1.4649e-01  6.1367e-06  0:00:02   42

  iter  continuity  x-velocity  y-velocity  z-velocity      energy     time/iter
  1959  6.5342e-06  3.2377e-05  2.0093e-05  1.4318e-01  6.1637e-06  0:00:01   41
  1960  6.5606e-06  3.2114e-05  2.0057e-05  1.3996e-01  6.1899e-06  0:00:01   40
  1961  6.5851e-06  3.1852e-05  2.0036e-05  1.3690e-01  6.2142e-06  0:00:01   39
  1962  6.6077e-06  3.1593e-05  2.0030e-05  1.3406e-01  6.2364e-06  0:00:01   38
  1963  6.6280e-06  3.1339e-05  2.0039e-05  1.3128e-01  6.2564e-06  0:00:01   37
  1964  6.6456e-06  3.1089e-05  2.0062e-05  1.2846e-01  6.2735e-06  0:00:08   36
  1965  6.6599e-06  3.0844e-05  2.0098e-05  1.2571e-01  6.2874e-06  0:00:06   35
  1966  6.6706e-06  3.0603e-05  2.0146e-05  1.2298e-01  6.2976e-06  0:00:05   34
  1967  6.6774e-06  3.0369e-05  2.0206e-05  1.2018e-01  6.3038e-06  0:00:04   33
  1968  6.6801e-06  3.0140e-05  2.0276e-05  1.1740e-01  6.3058e-06  0:00:03   32
  1969  6.6786e-06  2.9917e-05  2.0353e-05  1.1467e-01  6.3036e-06  0:00:02   31

  iter  continuity  x-velocity  y-velocity  z-velocity      energy     time/iter
  1970  6.6729e-06  2.9702e-05  2.0438e-05  1.1189e-01  6.2971e-06  0:00:02   30
  1971  6.6629e-06  2.9493e-05  2.0527e-05  1.0916e-01  6.2864e-06  0:00:01   29
  1972  6.6488e-06  2.9292e-05  2.0621e-05  1.0642e-01  6.2716e-06  0:00:01   28
  1973  6.6308e-06  2.9099e-05  2.0716e-05  1.0376e-01  6.2528e-06  0:00:01   27
  1974  6.6089e-06  2.8914e-05  2.0811e-05  1.0109e-01  6.2302e-06  0:00:01   26
  1975  6.5834e-06  2.8736e-05  2.0905e-05  9.8435e-02  6.2040e-06  0:00:05   25
  1976  6.5546e-06  2.8567e-05  2.0997e-05  9.5805e-02  6.1745e-06  0:00:04   24
  1977  6.5226e-06  2.8405e-05  2.1084e-05  9.3304e-02  6.1420e-06  0:00:03   23
  1978  6.4877e-06  2.8250e-05  2.1165e-05  9.1048e-02  6.1066e-06  0:00:02   22
  1979  6.4502e-06  2.8103e-05  2.1240e-05  8.8925e-02  6.0687e-06  0:00:02   21
  1980  6.4103e-06  2.7962e-05  2.1307e-05  8.6850e-02  6.0285e-06  0:00:01   20

  iter  continuity  x-velocity  y-velocity  z-velocity      energy     time/iter
  1981  6.3684e-06  2.7828e-05  2.1366e-05  8.4828e-02  5.9864e-06  0:00:01   19
  1982  6.3247e-06  2.7700e-05  2.1415e-05  8.2857e-02  5.9426e-06  0:00:01   18
  1983  6.2794e-06  2.7577e-05  2.1453e-05  8.0936e-02  5.8974e-06  0:00:01   17
  1984  6.2329e-06  2.7458e-05  2.1481e-05  7.9108e-02  5.8510e-06  0:00:00   16
  1985  6.1853e-06  2.7343e-05  2.1497e-05  7.7351e-02  5.8038e-06  0:00:00   15
  1986  6.1370e-06  2.7232e-05  2.1502e-05  7.5593e-02  5.7558e-06  0:00:00   14
  1987  6.0880e-06  2.7123e-05  2.1496e-05  7.3940e-02  5.7074e-06  0:00:00   13
  1988  6.0386e-06  2.7015e-05  2.1477e-05  7.2280e-02  5.6588e-06  0:00:00   12
  1989  5.9890e-06  2.6909e-05  2.1447e-05  7.0649e-02  5.6101e-06  0:00:02   11
  1990  5.9394e-06  2.6802e-05  2.1406e-05  6.9055e-02  5.5614e-06  0:00:02   10
  1991  5.8898e-06  2.6695e-05  2.1353e-05  6.7490e-02  5.5130e-06  0:00:01    9

  iter  continuity  x-velocity  y-velocity  z-velocity      energy     time/iter
  1992  5.8404e-06  2.6587e-05  2.1290e-05  6.5959e-02  5.4648e-06  0:00:01    8
  1993  5.7913e-06  2.6477e-05  2.1216e-05  6.4453e-02  5.4172e-06  0:00:01    7
  1994  5.7426e-06  2.6364e-05  2.1133e-05  6.2970e-02  5.3700e-06  0:00:00    6
  1995  5.6944e-06  2.6248e-05  2.1040e-05  6.1590e-02  5.3235e-06  0:00:00    5
  1996  5.6468e-06  2.6129e-05  2.0939e-05  6.0258e-02  5.2776e-06  0:00:00    4
  1997  5.5998e-06  2.6006e-05  2.0830e-05  5.8933e-02  5.2325e-06  0:00:00    3
  1998  5.5535e-06  2.5878e-05  2.0713e-05  5.7597e-02  5.1882e-06  0:00:00    2
  1999  5.5080e-06  2.5746e-05  2.0590e-05  5.6253e-02  5.1447e-06  0:00:00    1
  2000  5.4633e-06  2.5609e-05  2.0461e-05  5.4917e-02  5.1021e-06  0:00:00    0

> 
adjoint/                parallel/               server/
define/                 parametric-study/       solve/
display/                plot/                   surface/
exit                    preferences/            turbo-workflow/
file/                   print-license-usage     views/
mesh/                   report/

> /file/write-case-data project1
Fast-loading "C:\PROGRA~1\ANSYSI~1\v231\fluent\fluent23.1.0\\addons\afd\lib\hdfio.bin"
Done.

Writing to Engs-30669:"C:\Users\kebl7595\Desktop\CFD\Runs\Actual Data\15 degrees\project1.cas.h5" in NODE0 mode and compression level 1 ...
       12996 cells,     1 zone  ...
       43722 faces,     8 zones ...
       17864 nodes,     1 zone  ...
  Done.
Done.

Writing to Engs-30669:"C:\Users\kebl7595\Desktop\CFD\Runs\Actual Data\15 degrees\project1.dat.h5" in NODE0 mode and compression level 1 ...
  Writing results.
Done.

> /file/export/ascii "./surface.dat" wing te () no pressure mach-number quit no

Writing "./surface.dat"...

Writing information to ascii file ...
Done.


> /plot/plot y "data.dat" no n n pressure-coefficient no n x-coordinate wing ()

> /report/forces/wall-forces y -0.25882 0.96593 0 y "Force"

> /exit

Posting ANSYS Product Improvement Program performance data 
Done.
Auto-Transcript Stop Time:  14:44:29, 20 May 2024 GMT Daylight Time 
Total Transcript Time: 4 Minute 10 Second.
