Auto-Transcript Start Time:  11:48:16, 22 May 2024 GMT Daylight Time 
Current Directory: "C:\Users\kebl7595\Desktop\CFD\Runs\Flap\Re 3e5\no flap test -20 degree"

              Welcome to ANSYS Fluent 2023 R1

              Copyright 1987-2023 ANSYS, Inc. All Rights Reserved.
              Unauthorized use, distribution or duplication is prohibited.
              This product is subject to U.S. laws governing export and re-export.
              For full Legal Notice, see documentation.

Build Time: Nov 28 2022 09:52:02 EST  Build Id: 10208  
 
Connected License Server List:	1055@ansyslic.eng.ox.ac.uk

*********************************************
Info: Your license enables 4-way parallel execution.
For faster simulations, please start the application with the appropriate parallel options.
*********************************************


     --------------------------------------------------------------
     This is an academic version of ANSYS FLUENT. Usage of this product
     license is limited to the terms and conditions specified in your ANSYS
     license form, additional terms section.
     --------------------------------------------------------------
Host spawning Node 0 on machine "Engs-30669" (win64).

------------------------------------------------------------------------------------
ID    Hostname    Core  O.S.         PID    Vendor                                 
------------------------------------------------------------------------------------
n0    Engs-30669  1/32  Windows-x64  38520  13th Gen Intel(R) Core(TM) i9-13900    
host  Engs-30669        Windows-x64  49600  13th Gen Intel(R) Core(TM) i9-13900    

MPI Option Selected: intel
------------------------------------------------------------------------------------

Cleanup script file is C:\\Users\\kebl7595\\Desktop\\CFD\\Runs\\Flap\\Re 3e5\\no flap test -20 degree\\cleanup-fluent-Engs-30669-49600.bat

Posting ANSYS Product Improvement Program startup data
Done.

Reading journal file C:/Users/kebl7595/Desktop/CFD/Runs/Flap/Re 3e5/no flap test -20 degree/project1.jou...

> /file/set-batch-options no no no 

> 
define/                 parametric-study/       solve/
display/                plot/                   surface/
exit                    preferences/            switch-to-meshing-mode
file/                   print-license-usage     turbo-workflow/
mesh/                   report/                 views/
parallel/               server/

> /file/import/cgns/mesh  "./project1.cgns"
Engs-30669 has other FLUENT parallel processes running.                       Process affinity not being set.

Importing "./project1.cgns"

Opening library "C:\\PROGRA~1\\ANSYSI~1\\v231\\fluent\\fluent23.1.0\\vki\\win64\\devtools4.4.6.dll"... done.

Read    17864 nodes
   12996 hexahedral cells, zone  1
    9462 quadrilateral wall faces, zone  2.
   33972 quadrilateral interior faces, zone  3.
     282 quadrilateral interface faces, zone  4.
       6 quadrilateral wall faces, zone  5.

Building...
     mesh
     materials,
     interface,
     domains,
     zones,
	default_exterior-1
	interface-default_subface
	default_interior-1
	default_subface
	default
     parallel,
The automatic selection for flux type has changed to Rhie-Chow: momentum based.

Done.


> 
adjoint/                parallel/               server/
define/                 parametric-study/       solve/
display/                plot/                   surface/
exit                    preferences/            turbo-workflow/
file/                   print-license-usage     views/
mesh/                   report/

> /define/models/solver/density-based-implicit yes

> 
adjoint/                parallel/               server/
define/                 parametric-study/       solve/
display/                plot/                   surface/
exit                    preferences/            turbo-workflow/
file/                   print-license-usage     views/
mesh/                   report/

> /define/models/energy? yes yes invalid command [yes]
yes

> /define/models/viscous/kw-standard? yes

> 
adjoint/                parallel/               server/
define/                 parametric-study/       solve/
display/                plot/                   surface/
exit                    preferences/            turbo-workflow/
file/                   print-license-usage     views/
mesh/                   report/

> /define/materials/change-create air air air is a fluid
yes 
Density
ideal-gas no data required.

no no no no no no

> 
adjoint/                parallel/               server/
define/                 parametric-study/       solve/
display/                plot/                   surface/
exit                    preferences/            turbo-workflow/
file/                   print-license-usage     views/
mesh/                   report/

> /mesh/modify-zones/sep-face-zone-angle 2 90 yes

 4332 faces in contiguous region 0
 228 faces in contiguous region 1
 342 faces in contiguous region 2
 4332 faces in contiguous region 3
 228 faces in contiguous region 4
 Separates zone 2 into 5 zone(s).
Updating new zone information...
   created new zone default_subface:010 from default_subface
   created new zone default_subface:009 from default_subface
   created new zone default_subface:008 from default_subface
   created new zone default_subface:007 from default_subface
done.

> 
adjoint/                parallel/               server/
define/                 parametric-study/       solve/
display/                plot/                   surface/
exit                    preferences/            turbo-workflow/
file/                   print-license-usage     views/
mesh/                   report/

> /define/boundary-conditions/zone-name  5   te

> /define/boundary-conditions/zone-name  7 wing

> /define/boundary-conditions/zone-name  2 sym1

> /define/boundary-conditions/zone-name  9 sym2

> 
adjoint/                parallel/               server/
define/                 parametric-study/       solve/
display/                plot/                   surface/
exit                    preferences/            turbo-workflow/
file/                   print-license-usage     views/
mesh/                   report/

> /define/boundary-conditions/zone-name  8 far1

> /define/boundary-conditions/zone-name 10 far2

> 
adjoint/                parallel/               server/
define/                 parametric-study/       solve/
display/                plot/                   surface/
exit                    preferences/            turbo-workflow/
file/                   print-license-usage     views/
mesh/                   report/

> /define/boundary-conditions/zone-type  8 pressure-far-field

> /define/boundary-conditions/zone-type 10 pressure-far-field

> /define/boundary-conditions/zone-type  2 symmetry

> /define/boundary-conditions/zone-type  9 symmetry

> 
adjoint/                parallel/               server/
define/                 parametric-study/       solve/
display/                plot/                   surface/
exit                    preferences/            turbo-workflow/
file/                   print-license-usage     views/
mesh/                   report/

> /define/boundary-conditions/pressure-far-field (far2 far1)
far1 no -0.8642 no 0.1 no 300 yes no 0.939693 no -0.342020 no 0. no yes 5 0.02

> /define/boundary-conditions/pressure-far-field (far2 far1)
far2 no -0.8642 no 0.1 no 300 yes no 0.939693 no -0.342020 no 0. no yes 5 0.02

> 
adjoint/                parallel/               server/
define/                 parametric-study/       solve/
display/                plot/                   surface/
exit                    preferences/            turbo-workflow/
file/                   print-license-usage     views/
mesh/                   report/

> /solve/initialize/compute-defaults/pressure-far-field (far2 far1)
far1

> /solve/initialize/initialize-flow

> 
adjoint/                parallel/               server/
define/                 parametric-study/       solve/
display/                plot/                   surface/
exit                    preferences/            turbo-workflow/
file/                   print-license-usage     views/
mesh/                   report/

> /solve/monitors/residual/convergence-criteria 1.e-9 1.e-9 1.e-9 1.e-9 1.e-9 1.e-9 1.e-9

> /solve/iterate 2000

  iter  continuity  x-velocity  y-velocity  z-velocity      energy           k       omega     time/iter
     1  1.0000e+00  1.0000e+00  1.0000e+00  1.0000e+00  1.0000e+00  1.7287e-01  1.2935e-01  0:00:00 1999
     2  5.0261e-01  4.3937e-01  4.5805e-01  1.0000e+00  5.0311e-01  1.3048e-01  1.0160e-01  0:00:00 1998
     3  2.7349e-01  2.1163e-01  2.2465e-01  9.0060e-01  2.7369e-01  1.0194e-01  8.2669e-02  0:00:00 1997
     4  1.7111e-01  1.3559e-01  1.3067e-01  6.0200e-01  1.7117e-01  8.2739e-02  6.8790e-02  0:00:00 1996
     5  1.2252e-01  1.0232e-01  8.7264e-02  7.4115e-01  1.2254e-01  7.0136e-02  5.8717e-02  0:00:00 1995
     6  9.7964e-02  7.5355e-02  6.2162e-02  9.0886e-01  9.8005e-02  6.0445e-02  5.1471e-02  0:33:14 1994
     7  8.3749e-02  5.7251e-02  4.6808e-02  9.0096e-01  8.3817e-02  5.2695e-02  4.5740e-02  0:26:34 1993
     8  7.3814e-02  4.5658e-02  3.7260e-02  8.5992e-01  7.3896e-02  4.6391e-02  4.0932e-02  0:21:15 1992
     9  6.6795e-02  3.8295e-02  3.1206e-02  8.3017e-01  6.6879e-02  4.1204e-02  3.6857e-02  0:16:59 1991
    10  6.1850e-02  3.3939e-02  2.7109e-02  7.8425e-01  6.1927e-02  3.6937e-02  3.3399e-02  0:13:35 1990
    11  5.8539e-02  3.1704e-02  2.4194e-02  7.3551e-01  5.8601e-02  3.3438e-02  3.0449e-02  0:10:52 1989

  iter  continuity  x-velocity  y-velocity  z-velocity      energy           k       omega     time/iter
    12  5.6626e-02  3.0991e-02  2.2061e-02  7.0157e-01  5.6673e-02  3.0540e-02  2.7929e-02  0:08:41 1988
    13  5.5860e-02  3.1322e-02  2.0527e-02  6.7061e-01  5.5892e-02  2.8098e-02  2.5774e-02  0:06:57 1987
    14  5.6068e-02  3.2295e-02  1.9556e-02  6.5547e-01  5.6085e-02  2.6022e-02  2.3894e-02  0:05:33 1986
    15  5.7006e-02  3.3614e-02  1.8935e-02  6.5714e-01  5.7008e-02  2.4234e-02  2.2242e-02  0:04:26 1985
    16  5.8508e-02  3.5337e-02  1.8641e-02  6.7808e-01  5.8496e-02  2.2692e-02  2.0781e-02  0:03:33 1984
    17  6.0414e-02  3.7341e-02  1.8579e-02  7.2092e-01  6.0387e-02  2.1333e-02  1.9492e-02  0:02:50 1983
    18  6.2596e-02  3.9320e-02  1.8862e-02  7.8535e-01  6.2554e-02  2.0147e-02  1.8344e-02  0:02:16 1982
    19  6.4905e-02  4.1376e-02  1.9278e-02  8.6997e-01  6.4845e-02  1.9084e-02  1.7313e-02  0:08:25 1981
    20  6.7225e-02  4.3402e-02  1.9804e-02  9.7048e-01  6.7146e-02  1.8134e-02  1.6390e-02  0:06:44 1980
    21  6.9403e-02  4.4867e-02  2.0635e-02  1.0799e+00  6.9304e-02  1.7270e-02  1.5552e-02  0:05:23 1979
    22  7.1359e-02  4.6119e-02  2.1518e-02  1.1887e+00  7.1236e-02  1.6485e-02  1.4793e-02  0:04:18 1978

  iter  continuity  x-velocity  y-velocity  z-velocity      energy           k       omega     time/iter
    23  7.3000e-02  4.7218e-02  2.2187e-02  1.2930e+00  7.2852e-02  1.5772e-02  1.4103e-02  0:03:26 1977
    24  7.4293e-02  4.8076e-02  2.2879e-02  1.3839e+00  7.4118e-02  1.5121e-02  1.3468e-02  0:02:45 1976
    25  7.5186e-02  4.8644e-02  2.3529e-02  1.4553e+00  7.4983e-02  1.4520e-02  1.2878e-02  0:02:12 1975
    26  7.5614e-02  4.8915e-02  2.4074e-02  1.5015e+00  7.5381e-02  1.3970e-02  1.2333e-02  0:01:46 1974
    27  7.5522e-02  4.8422e-02  2.4609e-02  1.5198e+00  7.5258e-02  1.3466e-02  1.1832e-02  0:01:24 1973
    28  7.4983e-02  4.8065e-02  2.4710e-02  1.5054e+00  7.4690e-02  1.2999e-02  1.1357e-02  0:01:07 1972
    29  7.4020e-02  4.7565e-02  2.4439e-02  1.4680e+00  7.3697e-02  1.2563e-02  1.0908e-02  0:00:54 1971
    30  7.2629e-02  4.6948e-02  2.4039e-02  1.4076e+00  7.2278e-02  1.2159e-02  1.0490e-02  0:00:43 1970
    31  7.0865e-02  4.6213e-02  2.3470e-02  1.3277e+00  7.0487e-02  1.1787e-02  1.0091e-02  0:00:35 1969
    32  6.8789e-02  4.5062e-02  2.2997e-02  1.2402e+00  6.8387e-02  1.1429e-02  9.7049e-03  0:00:28 1968
    33  6.6437e-02  4.3985e-02  2.2406e-02  1.1647e+00  6.6013e-02  1.1098e-02  9.3348e-03  0:00:22 1967

  iter  continuity  x-velocity  y-velocity  z-velocity      energy           k       omega     time/iter
    34  6.3812e-02  4.3019e-02  2.1771e-02  1.1145e+00  6.3368e-02  1.0792e-02  8.9780e-03  0:06:51 1966
    35  6.0949e-02  4.2026e-02  2.1399e-02  1.0994e+00  6.0487e-02  1.0503e-02  8.6540e-03  0:05:29 1965
    36  5.7914e-02  4.0966e-02  2.1416e-02  1.1199e+00  5.7438e-02  1.0238e-02  8.3399e-03  0:04:23 1964
    37  5.4747e-02  3.9851e-02  2.1899e-02  1.1728e+00  5.4260e-02  9.9949e-03  8.0383e-03  0:03:30 1963
    38  5.1457e-02  3.8748e-02  2.2470e-02  1.2477e+00  5.0962e-02  9.7768e-03  7.7504e-03  0:02:48 1962
    39  4.8101e-02  3.7672e-02  2.3757e-02  1.3306e+00  4.7599e-02  9.5819e-03  7.5028e-03  0:02:14 1961
    40  4.4708e-02  3.6671e-02  2.5404e-02  1.4130e+00  4.4202e-02  9.4088e-03  7.2663e-03  0:01:47 1960
    41  4.1322e-02  3.5612e-02  2.7396e-02  1.4802e+00  4.0815e-02  9.2791e-03  7.0461e-03  0:01:26 1959
    42  3.7987e-02  3.4889e-02  2.9621e-02  1.5296e+00  3.7481e-02  9.1624e-03  6.8382e-03  0:01:09 1958
    43  3.4710e-02  3.4488e-02  3.2012e-02  1.5613e+00  3.4206e-02  9.0658e-03  6.6421e-03  0:00:55 1957
    44  3.1505e-02  3.4378e-02  3.4506e-02  1.5704e+00  3.1005e-02  8.9880e-03  6.4546e-03  0:00:44 1956

  iter  continuity  x-velocity  y-velocity  z-velocity      energy           k       omega     time/iter
    45  2.8400e-02  3.4461e-02  3.7068e-02  1.5563e+00  2.7905e-02  8.9189e-03  6.2634e-03  0:00:35 1955
    46  2.5430e-02  3.4782e-02  3.9612e-02  1.5204e+00  2.4942e-02  8.8794e-03  6.0729e-03  0:00:28 1954
    47  2.2629e-02  3.5357e-02  4.2083e-02  1.4667e+00  2.2150e-02  8.8697e-03  5.9133e-03  0:00:22 1953
    48  2.0030e-02  3.6185e-02  4.4441e-02  1.3966e+00  1.9563e-02  8.8796e-03  5.7533e-03  0:00:18 1952
    49  1.7682e-02  3.7205e-02  4.6668e-02  1.3138e+00  1.7231e-02  8.9059e-03  5.5993e-03  0:00:14 1951
    50  1.5628e-02  3.8395e-02  4.8734e-02  1.2310e+00  1.5198e-02  8.9518e-03  5.4597e-03  0:00:11 1950
    51  1.3919e-02  3.9744e-02  5.0605e-02  1.1542e+00  1.3519e-02  9.0400e-03  5.3101e-03  0:06:39 1949
    52  1.2604e-02  4.1203e-02  5.2258e-02  1.0885e+00  1.2245e-02  9.1334e-03  5.1823e-03  0:05:19 1948
    53  1.1709e-02  4.2733e-02  5.3687e-02  1.0368e+00  1.1402e-02  9.2336e-03  5.0701e-03  0:04:15 1947
    54  1.1227e-02  4.4344e-02  5.4874e-02  1.0002e+00  1.0982e-02  9.3569e-03  4.9606e-03  0:03:24 1946
    55  1.1112e-02  4.6017e-02  5.5804e-02  9.8427e-01  1.0929e-02  9.5189e-03  4.8483e-03  0:02:43 1945

  iter  continuity  x-velocity  y-velocity  z-velocity      energy           k       omega     time/iter
    56  1.1278e-02  4.7681e-02  5.6488e-02  9.8717e-01  1.1153e-02  9.7241e-03  4.7630e-03  0:02:10 1944
    57  1.1655e-02  4.9340e-02  5.6928e-02  1.0031e+00  1.1580e-02  9.9392e-03  4.6841e-03  0:01:44 1943
    58  1.2162e-02  5.0981e-02  5.7129e-02  1.0248e+00  1.2128e-02  1.0160e-02  4.6014e-03  0:01:23 1942
    59  1.2731e-02  5.2652e-02  5.7044e-02  1.0520e+00  1.2727e-02  1.0404e-02  4.5206e-03  0:01:07 1941
    60  1.3320e-02  5.4121e-02  5.6750e-02  1.0839e+00  1.3339e-02  1.0651e-02  4.4355e-03  0:00:53 1940
    61  1.3919e-02  5.5425e-02  5.6283e-02  1.1180e+00  1.3954e-02  1.0876e-02  4.3483e-03  0:00:43 1939
    62  1.4499e-02  5.6628e-02  5.5616e-02  1.1505e+00  1.4545e-02  1.1126e-02  4.2803e-03  0:00:34 1938
    63  1.5027e-02  5.7679e-02  5.4702e-02  1.1790e+00  1.5079e-02  1.1382e-02  4.2200e-03  0:00:27 1937
    64  1.5497e-02  5.8608e-02  5.3632e-02  1.2024e+00  1.5551e-02  1.1633e-02  4.1750e-03  0:00:22 1936
    65  1.5893e-02  5.9387e-02  5.2395e-02  1.2214e+00  1.5948e-02  1.1903e-02  4.1551e-03  0:00:17 1935
    66  1.6185e-02  5.9853e-02  5.0940e-02  1.2351e+00  1.6237e-02  1.2195e-02  4.1260e-03  0:00:14 1934

  iter  continuity  x-velocity  y-velocity  z-velocity      energy           k       omega     time/iter
    67  1.6376e-02  6.0051e-02  4.9315e-02  1.2404e+00  1.6425e-02  1.2507e-02  4.1100e-03  0:06:38 1933
    68  1.6462e-02  6.0028e-02  4.7529e-02  1.2327e+00  1.6505e-02  1.2830e-02  4.0972e-03  0:05:18 1932
    69  1.6426e-02  5.9986e-02  4.5496e-02  1.2176e+00  1.6462e-02  1.3164e-02  4.0954e-03  0:04:14 1931
    70  1.6272e-02  5.9662e-02  4.3427e-02  1.1963e+00  1.6302e-02  1.3492e-02  4.0917e-03  0:03:23 1930
    71  1.5988e-02  5.8987e-02  4.1327e-02  1.1725e+00  1.6012e-02  1.3832e-02  4.0708e-03  0:02:43 1929
    72  1.5554e-02  5.7575e-02  3.9094e-02  1.1486e+00  1.5570e-02  1.4167e-02  4.0506e-03  0:02:10 1928
    73  1.4996e-02  5.5826e-02  3.6865e-02  1.1243e+00  1.5005e-02  1.4487e-02  4.0410e-03  0:01:44 1927
    74  1.4336e-02  5.3959e-02  3.4619e-02  1.1036e+00  1.4338e-02  1.4806e-02  4.0342e-03  0:01:23 1926
    75  1.3560e-02  5.1946e-02  3.2432e-02  1.0905e+00  1.3556e-02  1.5119e-02  4.0092e-03  0:01:06 1925
    76  1.2652e-02  4.9763e-02  3.0103e-02  1.0796e+00  1.2641e-02  1.5452e-02  3.9777e-03  0:00:53 1924
    77  1.1682e-02  4.7533e-02  2.8101e-02  1.0765e+00  1.1667e-02  1.5816e-02  3.9486e-03  0:00:42 1923

  iter  continuity  x-velocity  y-velocity  z-velocity      energy           k       omega     time/iter
    78  1.0643e-02  4.5163e-02  2.6118e-02  1.0841e+00  1.0625e-02  1.6197e-02  3.9283e-03  0:00:34 1922
    79  9.5396e-03  4.2722e-02  2.4242e-02  1.0965e+00  9.5217e-03  1.6575e-02  3.9143e-03  0:00:27 1921
    80  8.4483e-03  4.0411e-02  2.2588e-02  1.1155e+00  8.4334e-03  1.6962e-02  3.8936e-03  0:00:22 1920
    81  7.5491e-03  3.8134e-02  2.1371e-02  1.1392e+00  7.5394e-03  1.7415e-02  3.8904e-03  0:00:17 1919
    82  6.9199e-03  3.5894e-02  2.0469e-02  1.1653e+00  6.9171e-03  1.7850e-02  3.8764e-03  0:00:14 1918
    83  6.6715e-03  3.3979e-02  1.9778e-02  1.1946e+00  6.6766e-03  1.8203e-02  3.8445e-03  0:06:35 1917
    84  6.8837e-03  3.2516e-02  1.9299e-02  1.2271e+00  6.8955e-03  1.8575e-02  3.8972e-03  0:05:15 1916
    85  7.5016e-03  3.1545e-02  1.9004e-02  1.2582e+00  7.5173e-03  1.9022e-02  3.8375e-03  0:04:12 1915
    86  8.4135e-03  3.1043e-02  1.8851e-02  1.2865e+00  8.4295e-03  1.9455e-02  3.7970e-03  0:03:22 1914
    87  9.5059e-03  3.0802e-02  1.8816e-02  1.3123e+00  9.5185e-03  1.9937e-02  3.7416e-03  0:02:41 1913
    88  1.0681e-02  3.0702e-02  1.8847e-02  1.3350e+00  1.0688e-02  2.0339e-02  3.6993e-03  0:02:09 1912

  iter  continuity  x-velocity  y-velocity  z-velocity      energy           k       omega     time/iter
    89  1.1876e-02  3.1091e-02  1.8857e-02  1.3430e+00  1.1875e-02  2.0574e-02  3.6810e-03  0:01:43 1911
    90  1.3054e-02  3.1869e-02  1.8842e-02  1.3509e+00  1.3044e-02  2.0888e-02  3.6717e-03  0:01:22 1910
    91  1.4159e-02  3.2504e-02  1.8843e-02  1.3495e+00  1.4138e-02  2.1456e-02  3.6576e-03  0:01:06 1909
    92  1.5159e-02  3.3097e-02  1.8779e-02  1.3350e+00  1.5127e-02  2.2046e-02  3.6257e-03  0:00:53 1908
    93  1.6022e-02  3.3599e-02  1.8600e-02  1.3211e+00  1.5977e-02  2.2715e-02  3.6791e-03  0:00:42 1907
    94  1.6738e-02  3.3982e-02  1.8336e-02  1.2985e+00  1.6680e-02  2.3134e-02  3.6169e-03  0:00:34 1906
    95  1.7291e-02  3.4225e-02  1.8005e-02  1.2700e+00  1.7219e-02  2.3360e-02  3.5561e-03  0:00:27 1905
    96  1.7663e-02  3.4283e-02  1.7654e-02  1.2386e+00  1.7578e-02  2.3460e-02  3.5201e-03  0:00:22 1904
    97  1.7842e-02  3.4148e-02  1.7049e-02  1.2078e+00  1.7744e-02  2.3621e-02  3.4802e-03  0:00:17 1903
    98  1.7846e-02  3.3794e-02  1.6523e-02  1.1783e+00  1.7736e-02  2.3845e-02  3.4510e-03  0:00:14 1902
    99  1.7680e-02  3.3253e-02  1.6006e-02  1.1521e+00  1.7558e-02  2.4396e-02  3.4333e-03  0:06:31 1901

  iter  continuity  x-velocity  y-velocity  z-velocity      energy           k       omega     time/iter
   100  1.7355e-02  3.2527e-02  1.5565e-02  1.1241e+00  1.7222e-02  2.4784e-02  3.3949e-03  0:05:13 1900
   101  1.6888e-02  3.1620e-02  1.5258e-02  1.0919e+00  1.6745e-02  2.4970e-02  3.3773e-03  0:04:10 1899
   102  1.6299e-02  3.0560e-02  1.5150e-02  1.0620e+00  1.6147e-02  2.4967e-02  3.3350e-03  0:03:20 1898
   103  1.5622e-02  2.9373e-02  1.5287e-02  1.0339e+00  1.5464e-02  2.5092e-02  3.3099e-03  0:02:40 1897
   104  1.4869e-02  2.8088e-02  1.5693e-02  1.0094e+00  1.4707e-02  2.5242e-02  3.2880e-03  0:02:08 1896
   105  1.4060e-02  2.6736e-02  1.6368e-02  9.8983e-01  1.3896e-02  2.5206e-02  3.2547e-03  0:01:42 1895
   106  1.3229e-02  2.5375e-02  1.7277e-02  9.7354e-01  1.3067e-02  2.5287e-02  3.2412e-03  0:01:22 1894
   107  1.2413e-02  2.4038e-02  1.8377e-02  9.6333e-01  1.2256e-02  2.5280e-02  3.2045e-03  0:01:05 1893
   108  1.1661e-02  2.2231e-02  1.9728e-02  9.5321e-01  1.1513e-02  2.5472e-02  3.1789e-03  0:00:52 1892
   109  1.1034e-02  2.1193e-02  2.1049e-02  9.4291e-01  1.0899e-02  2.5526e-02  3.1438e-03  0:00:42 1891
   110  1.0490e-02  2.0373e-02  2.2258e-02  9.3337e-01  1.0372e-02  2.5392e-02  3.1049e-03  0:00:33 1890

  iter  continuity  x-velocity  y-velocity  z-velocity      energy           k       omega     time/iter
   111  9.9832e-03  1.9663e-02  2.3373e-02  9.1970e-01  9.8864e-03  2.5106e-02  3.0717e-03  0:00:27 1889
   112  9.6438e-03  1.9497e-02  2.4505e-02  9.0838e-01  9.5713e-03  2.4964e-02  3.0533e-03  0:00:21 1888
   113  9.4952e-03  1.9779e-02  2.5564e-02  8.9618e-01  9.4482e-03  2.4863e-02  3.0374e-03  0:00:17 1887
   114  9.5389e-03  2.0518e-02  2.6518e-02  8.8511e-01  9.5161e-03  2.4628e-02  3.0136e-03  0:00:14 1886
   115  9.7578e-03  2.1660e-02  2.7348e-02  8.7593e-01  9.7557e-03  2.4343e-02  2.9737e-03  0:06:28 1885
   116  1.0126e-02  2.3135e-02  2.8043e-02  8.6826e-01  1.0140e-02  2.4197e-02  2.9287e-03  0:05:10 1884
   117  1.0618e-02  2.4867e-02  2.8598e-02  8.6261e-01  1.0642e-02  2.3966e-02  2.8963e-03  0:04:08 1883
   118  1.1203e-02  2.6787e-02  2.9010e-02  8.5762e-01  1.1233e-02  2.3415e-02  2.8645e-03  0:03:18 1882
   119  1.1851e-02  2.8828e-02  2.9281e-02  8.5594e-01  1.1882e-02  2.2770e-02  2.8250e-03  0:02:39 1881
   120  1.2535e-02  3.0925e-02  2.9415e-02  8.5985e-01  1.2562e-02  2.2039e-02  2.7950e-03  0:02:07 1880
   121  1.3233e-02  3.3031e-02  2.9413e-02  8.6699e-01  1.3253e-02  2.1513e-02  2.7692e-03  0:01:41 1879

  iter  continuity  x-velocity  y-velocity  z-velocity      energy           k       omega     time/iter
   122  1.3920e-02  3.5275e-02  2.9145e-02  8.7664e-01  1.3930e-02  2.1191e-02  2.7374e-03  0:01:21 1878
   123  1.4598e-02  3.7293e-02  2.8901e-02  8.8841e-01  1.4594e-02  2.0793e-02  2.7236e-03  0:01:05 1877
   124  1.5249e-02  3.9063e-02  2.8624e-02  9.0393e-01  1.5230e-02  2.0411e-02  2.6954e-03  0:00:52 1876
   125  1.5870e-02  4.0656e-02  2.8293e-02  9.1821e-01  1.5833e-02  1.9862e-02  2.6582e-03  0:00:41 1875
   126  1.6449e-02  4.2049e-02  2.7917e-02  9.3520e-01  1.6392e-02  1.9306e-02  2.6209e-03  0:00:33 1874
   127  1.6972e-02  4.3211e-02  2.7529e-02  9.5419e-01  1.6893e-02  1.8792e-02  2.5779e-03  0:00:26 1873
   128  1.7437e-02  4.4211e-02  2.7116e-02  9.7011e-01  1.7334e-02  1.8070e-02  2.5244e-03  0:00:21 1872
   129  1.7838e-02  4.5054e-02  2.6709e-02  9.8667e-01  1.7709e-02  1.7327e-02  2.4723e-03  0:00:17 1871
   130  1.8171e-02  4.5513e-02  2.6497e-02  9.9978e-01  1.8016e-02  1.6707e-02  2.4121e-03  0:00:14 1870
   131  1.8442e-02  4.5681e-02  2.6441e-02  1.0118e+00  1.8259e-02  1.6103e-02  2.3532e-03  0:06:25 1869
   132  1.8651e-02  4.5749e-02  2.6601e-02  1.0213e+00  1.8440e-02  1.5449e-02  2.2996e-03  0:05:08 1868

  iter  continuity  x-velocity  y-velocity  z-velocity      energy           k       omega     time/iter
   133  1.8793e-02  4.5396e-02  2.7065e-02  1.0267e+00  1.8554e-02  1.4898e-02  2.2448e-03  0:04:06 1867
   134  1.8860e-02  4.4729e-02  2.7682e-02  1.0269e+00  1.8593e-02  1.4309e-02  2.1961e-03  0:03:17 1866
   135  1.8852e-02  4.3781e-02  2.8429e-02  1.0218e+00  1.8556e-02  1.3945e-02  2.1369e-03  0:02:37 1865
   136  1.8753e-02  4.2581e-02  2.9104e-02  1.0099e+00  1.8429e-02  1.3608e-02  2.0655e-03  0:02:06 1864
   137  1.8602e-02  4.1185e-02  3.0156e-02  9.9985e-01  1.8252e-02  1.3268e-02  1.9971e-03  0:01:41 1863
   138  1.8384e-02  3.9699e-02  3.1255e-02  9.8556e-01  1.8010e-02  1.2809e-02  1.9246e-03  0:01:20 1862
   139  1.8093e-02  3.8182e-02  3.2379e-02  9.6993e-01  1.7696e-02  1.2167e-02  1.8528e-03  0:01:04 1861
   140  1.7723e-02  3.6551e-02  3.3514e-02  9.5527e-01  1.7307e-02  1.1512e-02  1.7754e-03  0:00:51 1860
   141  1.7267e-02  3.4816e-02  3.4641e-02  9.3884e-01  1.6835e-02  1.0970e-02  1.7136e-03  0:00:41 1859
   142  1.6727e-02  3.3213e-02  3.5748e-02  9.2193e-01  1.6282e-02  1.0540e-02  1.6655e-03  0:00:33 1858
   143  1.6141e-02  3.1832e-02  3.6855e-02  9.0360e-01  1.5687e-02  1.0266e-02  1.6213e-03  0:00:26 1857

  iter  continuity  x-velocity  y-velocity  z-velocity      energy           k       omega     time/iter
   144  1.5497e-02  3.0553e-02  3.7921e-02  8.8461e-01  1.5038e-02  1.0020e-02  1.5793e-03  0:00:21 1856
   145  1.4824e-02  2.9963e-02  3.8835e-02  8.6507e-01  1.4365e-02  9.8900e-03  1.5464e-03  0:00:17 1855
   146  1.4069e-02  3.1264e-02  3.9522e-02  8.4507e-01  1.3614e-02  9.8280e-03  1.5134e-03  0:00:13 1854
   147  1.3337e-02  3.1948e-02  4.0166e-02  8.2404e-01  1.2892e-02  9.8524e-03  1.4936e-03  0:06:21 1853
   148  1.2591e-02  3.2110e-02  4.0494e-02  8.0166e-01  1.2159e-02  9.8464e-03  1.4881e-03  0:05:05 1852
   149  1.1866e-02  3.2385e-02  4.0734e-02  7.7839e-01  1.1452e-02  9.8751e-03  1.4944e-03  0:04:04 1851
   150  1.1171e-02  3.2589e-02  4.0837e-02  7.5329e-01  1.0781e-02  9.9350e-03  1.5079e-03  0:03:15 1850
   151  1.0447e-02  3.2708e-02  4.0706e-02  7.2631e-01  1.0082e-02  9.9648e-03  1.5302e-03  0:02:36 1849
   152  9.7736e-03  3.3020e-02  4.0407e-02  6.9890e-01  9.4383e-03  1.0018e-02  1.5747e-03  0:02:05 1848
   153  9.1643e-03  3.3507e-02  3.9948e-02  6.6938e-01  8.8645e-03  1.0021e-02  1.6090e-03  0:01:40 1847
   154  8.6097e-03  3.4009e-02  3.9331e-02  6.4043e-01  8.3484e-03  9.9873e-03  1.6489e-03  0:01:20 1846

  iter  continuity  x-velocity  y-velocity  z-velocity      energy           k       omega     time/iter
   155  8.0993e-03  3.4508e-02  3.8564e-02  6.1228e-01  7.8784e-03  9.9896e-03  1.6752e-03  0:01:04 1845
   156  7.5624e-03  3.4755e-02  3.7812e-02  5.8256e-01  7.3816e-03  1.0039e-02  1.7127e-03  0:00:51 1844
   157  7.1911e-03  3.5585e-02  3.6950e-02  5.5041e-01  7.0522e-03  1.0152e-02  1.7552e-03  0:00:41 1843
   158  6.9441e-03  3.6504e-02  3.5766e-02  5.1849e-01  6.8452e-03  1.0250e-02  1.7902e-03  0:00:33 1842
   159  6.7810e-03  3.7086e-02  3.4391e-02  4.8552e-01  6.7183e-03  1.0298e-02  1.8372e-03  0:00:26 1841
   160  6.7193e-03  3.7223e-02  3.2924e-02  4.5300e-01  6.6885e-03  1.0247e-02  1.8765e-03  0:00:21 1840
   161  6.7522e-03  3.7029e-02  3.1407e-02  4.2419e-01  6.7482e-03  1.0120e-02  1.9006e-03  0:00:17 1839
   162  6.8403e-03  3.6599e-02  2.9868e-02  4.0044e-01  6.8575e-03  9.9747e-03  1.9093e-03  0:00:13 1838
   163  6.9885e-03  3.6043e-02  2.8331e-02  3.8227e-01  7.0212e-03  9.7540e-03  1.9124e-03  0:06:18 1837
   164  7.1856e-03  3.5251e-02  2.6893e-02  3.7065e-01  7.2273e-03  9.5837e-03  1.9234e-03  0:05:02 1836
   165  7.3930e-03  3.4464e-02  2.5356e-02  3.6521e-01  7.4389e-03  9.3886e-03  1.9337e-03  0:04:02 1835

  iter  continuity  x-velocity  y-velocity  z-velocity      energy           k       omega     time/iter
   166  7.5833e-03  3.3747e-02  2.3760e-02  3.6614e-01  7.6304e-03  9.1932e-03  1.9296e-03  0:03:13 1834
   167  7.7419e-03  3.2889e-02  2.2184e-02  3.7221e-01  7.7876e-03  8.9776e-03  1.9226e-03  0:02:35 1833
   168  7.8531e-03  3.1901e-02  2.0617e-02  3.8270e-01  7.8956e-03  8.8333e-03  1.9238e-03  0:02:04 1832
   169  7.9113e-03  3.0806e-02  1.9072e-02  3.9657e-01  7.9494e-03  8.6989e-03  1.9102e-03  0:01:39 1831
   170  7.9169e-03  2.9626e-02  1.7557e-02  4.1245e-01  7.9499e-03  8.5859e-03  1.9107e-03  0:01:19 1830
   171  7.8743e-03  2.8376e-02  1.6093e-02  4.3008e-01  7.9021e-03  8.4875e-03  1.9068e-03  0:01:03 1829
   172  7.7881e-03  2.7089e-02  1.4699e-02  4.4854e-01  7.8105e-03  8.4350e-03  1.8930e-03  0:00:50 1828
   173  7.6636e-03  2.5776e-02  1.3382e-02  4.6660e-01  7.6808e-03  8.3832e-03  1.8700e-03  0:00:40 1827
   174  7.5081e-03  2.4457e-02  1.2154e-02  4.8347e-01  7.5203e-03  8.3253e-03  1.8652e-03  0:00:32 1826
   175  7.3281e-03  2.3145e-02  1.1029e-02  4.9928e-01  7.3359e-03  8.2309e-03  1.8474e-03  0:00:26 1825
   176  7.1379e-03  2.1858e-02  1.0021e-02  5.1326e-01  7.1415e-03  8.1263e-03  1.8360e-03  0:00:21 1824

  iter  continuity  x-velocity  y-velocity  z-velocity      energy           k       omega     time/iter
   177  6.9466e-03  2.0622e-02  9.1451e-03  5.2424e-01  6.9468e-03  8.0597e-03  1.8131e-03  0:00:16 1823
   178  6.7533e-03  1.9158e-02  8.4574e-03  5.3116e-01  6.7503e-03  8.0155e-03  1.7967e-03  0:00:13 1822
   179  6.5723e-03  1.7709e-02  7.8632e-03  5.3448e-01  6.5668e-03  7.9858e-03  1.7868e-03  0:06:15 1821
   180  6.4232e-03  1.6562e-02  7.3603e-03  5.3491e-01  6.4161e-03  7.9035e-03  1.7671e-03  0:05:00 1820
   181  6.3144e-03  1.5269e-02  7.1331e-03  5.3264e-01  6.3063e-03  7.8160e-03  1.7591e-03  0:04:00 1819
   182  6.2432e-03  1.4250e-02  6.9587e-03  5.2764e-01  6.2347e-03  7.7012e-03  1.7442e-03  0:03:12 1818
   183  6.1935e-03  1.3532e-02  6.8124e-03  5.1956e-01  6.1850e-03  7.6179e-03  1.7300e-03  0:02:33 1817
   184  6.1832e-03  1.3073e-02  6.7909e-03  5.0941e-01  6.1753e-03  7.5884e-03  1.7207e-03  0:02:02 1816
   185  6.2365e-03  1.2925e-02  6.9212e-03  4.9666e-01  6.2290e-03  7.5243e-03  1.7055e-03  0:01:38 1815
   186  6.3345e-03  1.3032e-02  7.0938e-03  4.8211e-01  6.3272e-03  7.4823e-03  1.6908e-03  0:01:18 1814
   187  6.3853e-03  1.2601e-02  7.1935e-03  4.6673e-01  6.3783e-03  7.4701e-03  1.6711e-03  0:01:03 1813

  iter  continuity  x-velocity  y-velocity  z-velocity      energy           k       omega     time/iter
   188  6.4626e-03  1.2392e-02  7.2171e-03  4.5021e-01  6.4555e-03  7.4521e-03  1.6561e-03  0:00:50 1812
   189  6.4507e-03  1.2139e-02  7.1441e-03  4.3295e-01  6.4434e-03  7.4530e-03  1.6289e-03  0:00:40 1811
   190  6.4589e-03  1.2092e-02  7.1175e-03  4.1668e-01  6.4512e-03  7.4578e-03  1.6035e-03  0:00:32 1810
   191  6.4763e-03  1.2096e-02  7.0820e-03  4.0208e-01  6.4679e-03  7.5038e-03  1.5797e-03  0:00:26 1809
   192  6.5020e-03  1.2129e-02  7.0222e-03  3.8994e-01  6.4927e-03  7.5548e-03  1.5608e-03  0:00:20 1808
   193  6.5318e-03  1.2183e-02  6.9336e-03  3.8082e-01  6.5212e-03  7.5947e-03  1.5446e-03  0:00:16 1807
   194  6.5614e-03  1.2242e-02  6.8188e-03  3.7503e-01  6.5491e-03  7.6537e-03  1.5189e-03  0:00:13 1806
   195  6.5909e-03  1.2293e-02  6.6854e-03  3.7275e-01  6.5767e-03  7.6876e-03  1.5015e-03  0:06:11 1805
   196  6.6207e-03  1.2330e-02  6.5413e-03  3.7375e-01  6.6044e-03  7.7243e-03  1.4814e-03  0:04:57 1804
   197  6.6384e-03  1.2343e-02  6.3946e-03  3.7808e-01  6.6200e-03  7.7745e-03  1.4707e-03  0:03:57 1803
   198  6.6492e-03  1.2325e-02  6.2513e-03  3.8447e-01  6.6285e-03  7.8036e-03  1.4564e-03  0:03:10 1802

  iter  continuity  x-velocity  y-velocity  z-velocity      energy           k       omega     time/iter
   199  6.6532e-03  1.2273e-02  6.1157e-03  3.9196e-01  6.6303e-03  7.7871e-03  1.4432e-03  0:02:32 1801
   200  6.6417e-03  1.2185e-02  5.9917e-03  3.9988e-01  6.6166e-03  7.7511e-03  1.4267e-03  0:02:01 1800
   201  6.6139e-03  1.2057e-02  5.8834e-03  4.0762e-01  6.5866e-03  7.7186e-03  1.4295e-03  0:01:37 1799
   202  6.5659e-03  1.1893e-02  5.7935e-03  4.1562e-01  6.5365e-03  7.7113e-03  1.4280e-03  0:01:18 1798
   203  6.4928e-03  1.1698e-02  5.7233e-03  4.2281e-01  6.4615e-03  7.6761e-03  1.4239e-03  0:01:02 1797
   204  6.4025e-03  1.1479e-02  5.6752e-03  4.2867e-01  6.3694e-03  7.6005e-03  1.4274e-03  0:00:50 1796
   205  6.2904e-03  1.1234e-02  5.6542e-03  4.3364e-01  6.2557e-03  7.5083e-03  1.4267e-03  0:00:40 1795
   206  6.1549e-03  1.0957e-02  5.6574e-03  4.3794e-01  6.1187e-03  7.3820e-03  1.4227e-03  0:00:32 1794
   207  5.9960e-03  1.0657e-02  5.6803e-03  4.4173e-01  5.9586e-03  7.2399e-03  1.4276e-03  0:00:25 1793
   208  5.8166e-03  1.0342e-02  5.7264e-03  4.4486e-01  5.7782e-03  7.1411e-03  1.4350e-03  0:00:20 1792
   209  5.6157e-03  1.0026e-02  5.7878e-03  4.4693e-01  5.5766e-03  7.0282e-03  1.4312e-03  0:00:16 1791

  iter  continuity  x-velocity  y-velocity  z-velocity      energy           k       omega     time/iter
   210  5.3918e-03  9.7003e-03  5.8525e-03  4.4879e-01  5.3522e-03  6.9112e-03  1.4279e-03  0:00:13 1790
   211  5.1402e-03  9.3533e-03  5.9195e-03  4.4953e-01  5.1002e-03  6.8171e-03  1.4270e-03  0:06:08 1789
   212  4.8752e-03  9.0591e-03  5.9744e-03  4.5002e-01  4.8355e-03  6.8072e-03  1.4279e-03  0:04:54 1788
   213  4.5952e-03  8.7911e-03  6.0265e-03  4.5004e-01  4.5560e-03  6.8400e-03  1.4223e-03  0:03:55 1787
   214  4.3001e-03  8.5441e-03  6.0761e-03  4.4964e-01  4.2617e-03  6.8665e-03  1.4087e-03  0:03:08 1786
   215  3.9805e-03  8.3420e-03  6.1057e-03  4.4870e-01  3.9432e-03  6.9197e-03  1.3985e-03  0:02:30 1785
   216  3.6678e-03  8.2820e-03  6.1411e-03  4.4647e-01  3.6321e-03  6.9538e-03  1.4015e-03  0:02:00 1784
   217  3.3626e-03  8.2190e-03  6.2018e-03  4.4261e-01  3.3290e-03  7.0488e-03  1.3980e-03  0:01:36 1783
   218  3.0738e-03  8.2100e-03  6.2730e-03  4.3768e-01  3.0429e-03  7.1368e-03  1.3855e-03  0:01:17 1782
   219  2.7901e-03  8.2350e-03  6.2826e-03  4.3076e-01  2.7622e-03  7.2026e-03  1.3825e-03  0:01:01 1781
   220  2.5235e-03  8.2871e-03  6.2644e-03  4.2124e-01  2.4993e-03  7.2685e-03  1.3694e-03  0:00:49 1780

  iter  continuity  x-velocity  y-velocity  z-velocity      energy           k       omega     time/iter
   221  2.2856e-03  8.3653e-03  6.2325e-03  4.0927e-01  2.2660e-03  7.3633e-03  1.3596e-03  0:00:39 1779
   222  2.0948e-03  8.4588e-03  6.1899e-03  3.9567e-01  2.0805e-03  7.5253e-03  1.3527e-03  0:00:31 1778
   223  1.9634e-03  8.5606e-03  6.1337e-03  3.8181e-01  1.9552e-03  7.6577e-03  1.3415e-03  0:00:25 1777
   224  1.9130e-03  8.6575e-03  6.0762e-03  3.6784e-01  1.9108e-03  7.7819e-03  1.3222e-03  0:06:15 1776
   225  1.9484e-03  8.7626e-03  6.0099e-03  3.5532e-01  1.9514e-03  7.8697e-03  1.3159e-03  0:05:00 1775
   226  2.0647e-03  8.8780e-03  5.9338e-03  3.4370e-01  2.0711e-03  7.9499e-03  1.3086e-03  0:04:00 1774
   227  2.2451e-03  9.0020e-03  5.8501e-03  3.3264e-01  2.2533e-03  8.0133e-03  1.3116e-03  0:03:12 1773
   228  2.4672e-03  9.1414e-03  5.7576e-03  3.2226e-01  2.4757e-03  8.0894e-03  1.3088e-03  0:02:33 1772
   229  2.7149e-03  9.2835e-03  5.6639e-03  3.1273e-01  2.7226e-03  8.1232e-03  1.3056e-03  0:02:03 1771
   230  2.9761e-03  9.4184e-03  5.5696e-03  3.0515e-01  2.9822e-03  8.1379e-03  1.2961e-03  0:01:38 1770
   231  3.2399e-03  9.5418e-03  5.4719e-03  3.0052e-01  3.2438e-03  8.1576e-03  1.2880e-03  0:01:18 1769

  iter  continuity  x-velocity  y-velocity  z-velocity      energy           k       omega     time/iter
   232  3.4991e-03  9.6484e-03  5.3704e-03  2.9746e-01  3.5004e-03  8.1484e-03  1.2800e-03  0:01:03 1768
   233  3.7480e-03  9.7397e-03  5.2717e-03  2.9487e-01  3.7467e-03  8.1201e-03  1.2808e-03  0:00:50 1767
   234  3.9809e-03  9.8014e-03  5.1756e-03  2.9785e-01  3.9767e-03  8.1384e-03  1.2751e-03  0:00:40 1766
   235  4.1931e-03  9.8521e-03  5.0765e-03  3.0363e-01  4.1862e-03  8.2167e-03  1.2800e-03  0:00:32 1765
   236  4.3812e-03  9.8808e-03  4.9739e-03  3.1146e-01  4.3715e-03  8.2656e-03  1.2772e-03  0:00:26 1764
   237  4.5446e-03  9.8753e-03  4.8785e-03  3.2127e-01  4.5321e-03  8.2833e-03  1.2602e-03  0:00:20 1763
   238  4.6834e-03  9.8442e-03  4.8018e-03  3.3196e-01  4.6681e-03  8.2929e-03  1.2461e-03  0:00:16 1762
   239  4.7989e-03  9.7960e-03  4.7341e-03  3.4319e-01  4.7810e-03  8.3048e-03  1.2311e-03  0:00:13 1761
   240  4.8888e-03  9.7233e-03  4.6677e-03  3.5479e-01  4.8684e-03  8.3118e-03  1.2191e-03  0:06:02 1760
   241  4.9543e-03  9.6215e-03  4.6091e-03  3.6564e-01  4.9314e-03  8.3022e-03  1.2081e-03  0:04:50 1759
   242  4.9963e-03  9.4827e-03  4.5616e-03  3.7589e-01  4.9709e-03  8.3257e-03  1.1912e-03  0:03:52 1758

  iter  continuity  x-velocity  y-velocity  z-velocity      energy           k       omega     time/iter
   243  5.0151e-03  9.3083e-03  4.5261e-03  3.8599e-01  4.9876e-03  8.3491e-03  1.1769e-03  0:03:05 1757
   244  5.0105e-03  9.1034e-03  4.5066e-03  3.9424e-01  4.9808e-03  8.3269e-03  1.1522e-03  0:02:28 1756
   245  4.9850e-03  8.8807e-03  4.5051e-03  4.0043e-01  4.9534e-03  8.2990e-03  1.1393e-03  0:01:58 1755
   246  4.9407e-03  8.6399e-03  4.5126e-03  4.0499e-01  4.9073e-03  8.3064e-03  1.1165e-03  0:01:35 1754
   247  4.8807e-03  8.3803e-03  4.5330e-03  4.0845e-01  4.8458e-03  8.3614e-03  1.0932e-03  0:01:16 1753
   248  4.8060e-03  8.1024e-03  4.5843e-03  4.0985e-01  4.7698e-03  8.3792e-03  1.0655e-03  0:01:01 1752
   249  4.7193e-03  7.8366e-03  4.6355e-03  4.0834e-01  4.6820e-03  8.3431e-03  1.0424e-03  0:00:48 1751
   250  4.6285e-03  7.6113e-03  4.7050e-03  4.0435e-01  4.5903e-03  8.2599e-03  1.0205e-03  0:00:39 1750
   251  4.5329e-03  7.4101e-03  4.7758e-03  3.9844e-01  4.4940e-03  8.2087e-03  9.9497e-04  0:00:31 1749
   252  4.4336e-03  7.2283e-03  4.8516e-03  3.9019e-01  4.3943e-03  8.1641e-03  9.7001e-04  0:00:25 1748
   253  4.3317e-03  7.0669e-03  4.9286e-03  3.8006e-01  4.2923e-03  8.1368e-03  9.5375e-04  0:00:20 1747

  iter  continuity  x-velocity  y-velocity  z-velocity      energy           k       omega     time/iter
   254  4.2267e-03  6.9285e-03  5.0019e-03  3.6919e-01  4.1873e-03  8.0888e-03  9.3575e-04  0:00:16 1746
   255  4.0763e-03  6.6071e-03  5.0012e-03  3.5705e-01  4.0371e-03  8.0652e-03  9.1678e-04  0:06:02 1745
   256  3.9229e-03  6.4182e-03  5.0380e-03  3.4450e-01  3.8844e-03  8.0090e-03  9.0190e-04  0:04:49 1744
   257  3.7761e-03  6.2851e-03  5.1012e-03  3.3166e-01  3.7386e-03  7.9223e-03  8.8353e-04  0:03:51 1743
   258  3.6345e-03  6.1930e-03  5.1689e-03  3.1760e-01  3.5982e-03  7.8219e-03  8.7142e-04  0:03:05 1742
   259  3.5030e-03  6.1587e-03  5.2271e-03  3.0266e-01  3.4681e-03  7.6679e-03  8.5989e-04  0:02:28 1741
   260  3.3831e-03  6.1721e-03  5.2709e-03  2.8712e-01  3.3500e-03  7.5390e-03  8.5503e-04  0:01:58 1740
   261  3.2756e-03  6.2220e-03  5.3005e-03  2.7174e-01  3.2444e-03  7.4089e-03  8.4826e-04  0:01:34 1739
   262  3.1791e-03  6.2648e-03  5.3156e-03  2.5783e-01  3.1500e-03  7.2648e-03  8.3272e-04  0:01:16 1738
   263  3.0987e-03  6.3485e-03  5.3165e-03  2.4576e-01  3.0718e-03  7.0861e-03  8.2031e-04  0:01:00 1737
   264  3.0322e-03  6.4508e-03  5.3055e-03  2.3592e-01  3.0075e-03  6.9052e-03  8.1400e-04  0:00:48 1736

  iter  continuity  x-velocity  y-velocity  z-velocity      energy           k       omega     time/iter
   265  2.9793e-03  6.5673e-03  5.2841e-03  2.2878e-01  2.9569e-03  6.7253e-03  8.0484e-04  0:00:39 1735
   266  2.9395e-03  6.6860e-03  5.2504e-03  2.2467e-01  2.9194e-03  6.5835e-03  8.0159e-04  0:00:31 1734
   267  2.9124e-03  6.8010e-03  5.2035e-03  2.2380e-01  2.8945e-03  6.4408e-03  7.9818e-04  0:00:25 1733
   268  2.8972e-03  6.9060e-03  5.1435e-03  2.2611e-01  2.8812e-03  6.2982e-03  7.9525e-04  0:00:20 1732
   269  2.8916e-03  6.9968e-03  5.0702e-03  2.3212e-01  2.8774e-03  6.1561e-03  7.9461e-04  0:00:16 1731
   270  2.8918e-03  7.0676e-03  4.9860e-03  2.4195e-01  2.8792e-03  6.0368e-03  7.9558e-04  0:00:13 1730
   271  2.8957e-03  7.1151e-03  4.8910e-03  2.5431e-01  2.8844e-03  5.9228e-03  7.9766e-04  0:05:56 1729
   272  2.9003e-03  7.1406e-03  4.7846e-03  2.6816e-01  2.8902e-03  5.7816e-03  7.9345e-04  0:04:45 1728
   273  2.9042e-03  7.1402e-03  4.6675e-03  2.8272e-01  2.8949e-03  5.6309e-03  7.9193e-04  0:03:48 1727
   274  2.9045e-03  7.1110e-03  4.5406e-03  2.9791e-01  2.8960e-03  5.5093e-03  7.9155e-04  0:03:02 1726
   275  2.8987e-03  7.0530e-03  4.4036e-03  3.1312e-01  2.8906e-03  5.3771e-03  7.9346e-04  0:02:25 1725

  iter  continuity  x-velocity  y-velocity  z-velocity      energy           k       omega     time/iter
   276  2.8878e-03  6.9658e-03  4.2589e-03  3.2699e-01  2.8801e-03  5.2409e-03  7.9950e-04  0:01:56 1724
   277  2.8725e-03  6.8522e-03  4.1085e-03  3.3948e-01  2.8650e-03  5.1286e-03  7.9742e-04  0:01:33 1723
   278  2.8498e-03  6.7136e-03  3.9532e-03  3.5084e-01  2.8425e-03  5.0762e-03  7.9057e-04  0:01:14 1722
   279  2.8127e-03  6.5532e-03  3.7955e-03  3.6158e-01  2.8054e-03  5.0059e-03  7.8834e-04  0:00:59 1721
   280  2.7765e-03  6.3753e-03  3.6364e-03  3.7157e-01  2.7690e-03  4.9128e-03  7.7965e-04  0:00:48 1720
   281  2.7302e-03  6.1848e-03  3.4777e-03  3.8064e-01  2.7226e-03  4.8229e-03  7.7008e-04  0:00:38 1719
   282  2.6843e-03  5.9930e-03  3.3204e-03  3.8908e-01  2.6765e-03  4.7461e-03  7.7123e-04  0:00:30 1718
   283  2.6347e-03  5.7983e-03  3.1669e-03  3.9687e-01  2.6265e-03  4.6317e-03  7.6898e-04  0:00:24 1717
   284  2.5809e-03  5.6032e-03  3.0198e-03  4.0367e-01  2.5723e-03  4.5160e-03  7.6376e-04  0:00:19 1716
   285  2.5142e-03  5.4116e-03  2.8832e-03  4.0928e-01  2.5051e-03  4.4385e-03  7.5544e-04  0:00:16 1715
   286  2.4471e-03  5.2265e-03  2.7619e-03  4.1340e-01  2.4373e-03  4.3763e-03  7.4923e-04  0:00:12 1714

  iter  continuity  x-velocity  y-velocity  z-velocity      energy           k       omega     time/iter
   287  2.3896e-03  5.0539e-03  2.6570e-03  4.1592e-01  2.3789e-03  4.3184e-03  7.4094e-04  0:05:53 1713
   288  2.3465e-03  4.9084e-03  2.5705e-03  4.1730e-01  2.3349e-03  4.2682e-03  7.3650e-04  0:04:42 1712
   289  2.3200e-03  4.7939e-03  2.5053e-03  4.1756e-01  2.3072e-03  4.2453e-03  7.3473e-04  0:03:45 1711
   290  2.3119e-03  4.7075e-03  2.4616e-03  4.1687e-01  2.2978e-03  4.2283e-03  7.3262e-04  0:03:00 1710
   291  2.3235e-03  4.6563e-03  2.4382e-03  4.1547e-01  2.3079e-03  4.2221e-03  7.3473e-04  0:02:24 1709
   292  2.3527e-03  4.6416e-03  2.4340e-03  4.1316e-01  2.3355e-03  4.2080e-03  7.2823e-04  0:01:55 1708
   293  2.4000e-03  4.6592e-03  2.4483e-03  4.1009e-01  2.3810e-03  4.2207e-03  7.2320e-04  0:01:32 1707
   294  2.4648e-03  4.7091e-03  2.4792e-03  4.0618e-01  2.4440e-03  4.2303e-03  7.1762e-04  0:01:14 1706
   295  2.5462e-03  4.7857e-03  2.5242e-03  4.0130e-01  2.5235e-03  4.2565e-03  7.0735e-04  0:00:59 1705
   296  2.6410e-03  4.8813e-03  2.5789e-03  3.9562e-01  2.6162e-03  4.2696e-03  7.0285e-04  0:00:47 1704
   297  2.7462e-03  4.9876e-03  2.6398e-03  3.8865e-01  2.7193e-03  4.3054e-03  6.9954e-04  0:00:38 1703

  iter  continuity  x-velocity  y-velocity  z-velocity      energy           k       omega     time/iter
   298  2.8582e-03  5.0933e-03  2.7065e-03  3.8096e-01  2.8291e-03  4.3534e-03  6.9114e-04  0:00:30 1702
   299  2.9745e-03  5.1943e-03  2.7771e-03  3.7302e-01  2.9433e-03  4.3910e-03  6.7763e-04  0:00:24 1701
   300  3.0930e-03  5.2852e-03  2.8472e-03  3.6462e-01  3.0595e-03  4.4335e-03  6.7188e-04  0:00:19 1700
   301  3.2107e-03  5.3653e-03  2.9147e-03  3.5572e-01  3.1750e-03  4.4741e-03  6.6218e-04  0:00:15 1699
   302  3.3254e-03  5.4306e-03  2.9802e-03  3.4665e-01  3.2877e-03  4.5157e-03  6.4248e-04  0:00:12 1698
   303  3.4347e-03  5.4744e-03  3.0443e-03  3.3752e-01  3.3949e-03  4.5435e-03  6.2887e-04  0:05:49 1697
   304  3.5363e-03  5.4963e-03  3.1091e-03  3.2864e-01  3.4944e-03  4.5973e-03  6.2011e-04  0:04:39 1696
   305  3.6282e-03  5.4950e-03  3.1747e-03  3.2082e-01  3.5843e-03  4.6362e-03  6.0900e-04  0:03:43 1695
   306  3.7087e-03  5.4676e-03  3.2405e-03  3.1433e-01  3.6630e-03  4.6612e-03  6.0738e-04  0:02:58 1694
   307  3.7762e-03  5.4170e-03  3.3115e-03  3.0909e-01  3.7287e-03  4.6690e-03  5.9626e-04  0:02:23 1693
   308  3.8290e-03  5.3448e-03  3.3904e-03  3.0544e-01  3.7799e-03  4.6575e-03  5.9078e-04  0:01:54 1692

  iter  continuity  x-velocity  y-velocity  z-velocity      energy           k       omega     time/iter
   309  3.8656e-03  5.2539e-03  3.4728e-03  3.0366e-01  3.8150e-03  4.6488e-03  5.8038e-04  0:01:31 1691
   310  3.8847e-03  5.1467e-03  3.5619e-03  3.0381e-01  3.8328e-03  4.6270e-03  5.7552e-04  0:01:13 1690
   311  3.8852e-03  5.0257e-03  3.6572e-03  3.0613e-01  3.8321e-03  4.5880e-03  5.7320e-04  0:00:58 1689
   312  3.8660e-03  4.8938e-03  3.7592e-03  3.1120e-01  3.8118e-03  4.5398e-03  5.6859e-04  0:00:47 1688
   313  3.8263e-03  4.7555e-03  3.8675e-03  3.1882e-01  3.7713e-03  4.5009e-03  5.6498e-04  0:00:37 1687
   314  3.7655e-03  4.6144e-03  3.9828e-03  3.2930e-01  3.7099e-03  4.4604e-03  5.6417e-04  0:00:30 1686
   315  3.6837e-03  4.4785e-03  4.1035e-03  3.4279e-01  3.6276e-03  4.4245e-03  5.6780e-04  0:00:24 1685
   316  3.5813e-03  4.3571e-03  4.2278e-03  3.5952e-01  3.5248e-03  4.3753e-03  5.7058e-04  0:00:19 1684
   317  3.4590e-03  4.2580e-03  4.3545e-03  3.7964e-01  3.4025e-03  4.3121e-03  5.6460e-04  0:00:15 1683
   318  3.3181e-03  4.1848e-03  4.4819e-03  4.0120e-01  3.2617e-03  4.2411e-03  5.6144e-04  0:00:12 1682
   319  3.1596e-03  4.1428e-03  4.6079e-03  4.2446e-01  3.1035e-03  4.1904e-03  5.6205e-04  0:05:46 1681

  iter  continuity  x-velocity  y-velocity  z-velocity      energy           k       omega     time/iter
   320  2.9848e-03  4.1176e-03  4.7318e-03  4.4892e-01  2.9293e-03  4.1468e-03  5.6193e-04  0:04:37 1680
   321  2.7977e-03  4.1506e-03  4.8475e-03  4.7319e-01  2.7430e-03  4.1099e-03  5.5865e-04  0:03:41 1679
   322  2.5994e-03  4.2301e-03  4.9544e-03  4.9809e-01  2.5458e-03  4.0470e-03  5.5974e-04  0:02:57 1678
   323  2.3929e-03  4.3482e-03  5.0518e-03  5.2358e-01  2.3408e-03  3.9626e-03  5.6091e-04  0:02:21 1677
   324  2.1817e-03  4.5010e-03  5.1378e-03  5.5107e-01  2.1314e-03  3.8839e-03  5.6164e-04  0:01:53 1676
   325  1.9697e-03  4.6835e-03  5.2114e-03  5.7843e-01  1.9216e-03  3.8146e-03  5.6096e-04  0:01:30 1675
   326  1.7616e-03  4.8880e-03  5.2709e-03  6.0386e-01  1.7163e-03  3.7406e-03  5.5980e-04  0:01:12 1674
   327  1.5654e-03  5.1083e-03  5.3154e-03  6.2681e-01  1.5237e-03  3.6503e-03  5.5860e-04  0:00:58 1673
   328  1.3907e-03  5.3376e-03  5.3427e-03  6.4783e-01  1.3537e-03  3.5739e-03  5.5663e-04  0:00:46 1672
   329  1.2486e-03  5.5704e-03  5.3518e-03  6.6619e-01  1.2178e-03  3.5096e-03  5.5885e-04  0:00:37 1671
   330  1.1511e-03  5.8003e-03  5.3420e-03  6.8362e-01  1.1280e-03  3.4564e-03  5.6048e-04  0:00:30 1670

  iter  continuity  x-velocity  y-velocity  z-velocity      energy           k       omega     time/iter
   331  1.1086e-03  6.0212e-03  5.3126e-03  6.9968e-01  1.0941e-03  3.3871e-03  5.5759e-04  0:00:24 1669
   332  1.1231e-03  6.2283e-03  5.2633e-03  7.1457e-01  1.1168e-03  3.3441e-03  5.5754e-04  0:00:19 1668
   333  1.1876e-03  6.4166e-03  5.1938e-03  7.2802e-01  1.1879e-03  3.3176e-03  5.5856e-04  0:00:15 1667
   334  1.2884e-03  6.5817e-03  5.1043e-03  7.3827e-01  1.2933e-03  3.2845e-03  5.5860e-04  0:00:12 1666
   335  1.4111e-03  6.7204e-03  4.9951e-03  7.4638e-01  1.4186e-03  3.2486e-03  5.5825e-04  0:05:43 1665
   336  1.5435e-03  6.8311e-03  4.8673e-03  7.5164e-01  1.5522e-03  3.2470e-03  5.5375e-04  0:04:34 1664
   337  1.6763e-03  6.9101e-03  4.7221e-03  7.5457e-01  1.6853e-03  3.2653e-03  5.4694e-04  0:03:39 1663
   338  1.8030e-03  6.9559e-03  4.5611e-03  7.5368e-01  1.8114e-03  3.2723e-03  5.4192e-04  0:02:55 1662
   339  1.9191e-03  6.9687e-03  4.3862e-03  7.4844e-01  1.9265e-03  3.2761e-03  5.4048e-04  0:02:20 1661
   340  2.0216e-03  6.9468e-03  4.2002e-03  7.3985e-01  2.0278e-03  3.2778e-03  5.3821e-04  0:01:52 1660
   341  2.1079e-03  6.8922e-03  4.0039e-03  7.2826e-01  2.1126e-03  3.2995e-03  5.3393e-04  0:01:29 1659

  iter  continuity  x-velocity  y-velocity  z-velocity      energy           k       omega     time/iter
   342  2.1763e-03  6.8011e-03  3.8018e-03  7.1360e-01  2.1794e-03  3.3181e-03  5.2621e-04  0:01:12 1658
   343  2.2256e-03  6.6790e-03  3.5966e-03  6.9683e-01  2.2271e-03  3.3294e-03  5.2432e-04  0:00:57 1657
   344  2.2555e-03  6.5270e-03  3.3918e-03  6.7853e-01  2.2554e-03  3.3471e-03  5.1980e-04  0:00:46 1656
   345  2.2656e-03  6.3485e-03  3.1913e-03  6.6043e-01  2.2639e-03  3.3887e-03  5.1292e-04  0:00:37 1655
   346  2.2558e-03  6.1451e-03  2.9991e-03  6.4397e-01  2.2526e-03  3.4089e-03  5.0446e-04  0:00:29 1654
   347  2.2263e-03  5.9216e-03  2.8195e-03  6.3095e-01  2.2217e-03  3.4143e-03  4.9507e-04  0:00:23 1653
   348  2.1778e-03  5.6806e-03  2.6575e-03  6.2087e-01  2.1719e-03  3.4129e-03  4.8636e-04  0:05:49 1652
   349  2.1111e-03  5.4278e-03  2.5172e-03  6.1433e-01  2.1041e-03  3.4084e-03  4.7961e-04  0:04:39 1651
   350  2.0274e-03  5.1696e-03  2.4023e-03  6.1216e-01  2.0194e-03  3.3942e-03  4.7575e-04  0:03:43 1650
   351  1.9281e-03  4.9112e-03  2.3157e-03  6.1304e-01  1.9193e-03  3.3663e-03  4.7539e-04  0:02:58 1649
   352  1.8152e-03  4.6598e-03  2.2585e-03  6.1581e-01  1.8057e-03  3.3377e-03  4.7302e-04  0:02:23 1648

  iter  continuity  x-velocity  y-velocity  z-velocity      energy           k       omega     time/iter
   353  1.6901e-03  4.4208e-03  2.2299e-03  6.1917e-01  1.6802e-03  3.3205e-03  4.7002e-04  0:01:54 1647
   354  1.5562e-03  4.2018e-03  2.2269e-03  6.2369e-01  1.5460e-03  3.3112e-03  4.6244e-04  0:01:31 1646
   355  1.4136e-03  4.0047e-03  2.2418e-03  6.2675e-01  1.4034e-03  3.2846e-03  4.5528e-04  0:01:13 1645
   356  1.2678e-03  3.8557e-03  2.2729e-03  6.2998e-01  1.2579e-03  3.2438e-03  4.5094e-04  0:00:58 1644
   357  1.1277e-03  3.7478e-03  2.3202e-03  6.3835e-01  1.1183e-03  3.1986e-03  4.4489e-04  0:00:47 1643
   358  9.9473e-04  3.6640e-03  2.3750e-03  6.5602e-01  9.8616e-04  3.1612e-03  4.3729e-04  0:00:37 1642
   359  8.7602e-04  3.6097e-03  2.4300e-03  6.8049e-01  8.6865e-04  3.1121e-03  4.2861e-04  0:00:30 1641
   360  7.8211e-04  3.5874e-03  2.4802e-03  7.1145e-01  7.7641e-04  3.0580e-03  4.2167e-04  0:00:24 1640
   361  7.2453e-04  3.5942e-03  2.5228e-03  7.5417e-01  7.2093e-04  3.0044e-03  4.1674e-04  0:00:19 1639
   362  7.1107e-04  3.6231e-03  2.5554e-03  8.0000e-01  7.0967e-04  2.9542e-03  4.1054e-04  0:00:15 1638
   363  7.4107e-04  3.6653e-03  2.5763e-03  8.5600e-01  7.4151e-04  2.8926e-03  4.0642e-04  0:00:12 1637

  iter  continuity  x-velocity  y-velocity  z-velocity      energy           k       omega     time/iter
   364  8.0518e-04  3.7135e-03  2.5840e-03  9.2200e-01  8.0682e-04  2.8266e-03  4.0088e-04  0:05:37 1636
   365  8.9073e-04  3.7612e-03  2.5776e-03  9.9573e-01  8.9293e-04  2.7718e-03  3.9732e-04  0:04:29 1635
   366  9.8703e-04  3.8034e-03  2.5569e-03  1.0758e+00  9.8930e-04  2.7302e-03  3.9013e-04  0:03:35 1634
   367  1.0857e-03  3.8346e-03  2.5211e-03  1.1606e+00  1.0877e-03  2.6818e-03  3.8096e-04  0:02:52 1633
   368  1.1809e-03  3.8514e-03  2.4701e-03  1.2475e+00  1.1825e-03  2.6259e-03  3.6807e-04  0:02:18 1632
   369  1.2688e-03  3.8520e-03  2.4067e-03  1.3353e+00  1.2697e-03  2.5811e-03  3.6185e-04  0:01:50 1631
   370  1.3464e-03  3.8352e-03  2.3314e-03  1.4235e+00  1.3468e-03  2.5315e-03  3.5488e-04  0:01:28 1630
   371  1.4120e-03  3.8001e-03  2.2460e-03  1.5130e+00  1.4117e-03  2.4814e-03  3.4845e-04  0:01:10 1629
   372  1.4639e-03  3.7457e-03  2.1525e-03  1.6021e+00  1.4630e-03  2.4211e-03  3.4493e-04  0:00:56 1628
   373  1.5013e-03  3.6720e-03  2.0527e-03  1.6903e+00  1.4998e-03  2.3580e-03  3.4233e-04  0:00:45 1627
   374  1.5234e-03  3.5798e-03  1.9491e-03  1.7783e+00  1.5213e-03  2.3002e-03  3.4027e-04  0:00:36 1626

  iter  continuity  x-velocity  y-velocity  z-velocity      energy           k       omega     time/iter
   375  1.5299e-03  3.4708e-03  1.8450e-03  1.8654e+00  1.5274e-03  2.2327e-03  3.3873e-04  0:00:29 1625
   376  1.5211e-03  3.3476e-03  1.7431e-03  1.9496e+00  1.5182e-03  2.1590e-03  3.3772e-04  0:00:23 1624
   377  1.4973e-03  3.2133e-03  1.6465e-03  2.0289e+00  1.4941e-03  2.1147e-03  3.3763e-04  0:00:18 1623
   378  1.4593e-03  3.0714e-03  1.5580e-03  2.1008e+00  1.4559e-03  2.0745e-03  3.3966e-04  0:00:15 1622
   379  1.4081e-03  2.9256e-03  1.4806e-03  2.1668e+00  1.4047e-03  2.0300e-03  3.4318e-04  0:00:12 1621
   380  1.3454e-03  2.7803e-03  1.4172e-03  2.2269e+00  1.3419e-03  2.0064e-03  3.4506e-04  0:05:33 1620
   381  1.2727e-03  2.6410e-03  1.3691e-03  2.2798e+00  1.2694e-03  1.9920e-03  3.4717e-04  0:04:27 1619
   382  1.1923e-03  2.5126e-03  1.3369e-03  2.3237e+00  1.1893e-03  1.9818e-03  3.4883e-04  0:03:33 1618
   383  1.1072e-03  2.4012e-03  1.3204e-03  2.3571e+00  1.1045e-03  1.9730e-03  3.4901e-04  0:02:50 1617
   384  1.0203e-03  2.3128e-03  1.3180e-03  2.3809e+00  1.0181e-03  1.9528e-03  3.4883e-04  0:02:16 1616
   385  9.3570e-04  2.2510e-03  1.3272e-03  2.3948e+00  9.3402e-04  1.9488e-03  3.4307e-04  0:01:49 1615

  iter  continuity  x-velocity  y-velocity  z-velocity      energy           k       omega     time/iter
   386  8.5857e-04  2.2186e-03  1.3453e-03  2.3985e+00  8.5741e-04  1.9489e-03  3.3626e-04  0:01:27 1614
   387  7.9486e-04  2.2164e-03  1.3693e-03  2.3925e+00  7.9417e-04  1.9460e-03  3.2975e-04  0:01:10 1613
   388  7.5092e-04  2.2421e-03  1.3964e-03  2.3797e+00  7.5052e-04  1.9475e-03  3.2312e-04  0:00:56 1612
   389  7.3246e-04  2.2921e-03  1.4241e-03  2.3630e+00  7.3209e-04  1.9414e-03  3.1770e-04  0:00:44 1611
   390  7.4188e-04  2.3609e-03  1.4503e-03  2.3433e+00  7.4118e-04  1.9329e-03  3.1367e-04  0:00:36 1610
   391  7.7769e-04  2.4425e-03  1.4736e-03  2.3264e+00  7.7634e-04  1.9302e-03  3.0943e-04  0:00:28 1609
   392  8.3489e-04  2.5310e-03  1.4929e-03  2.3135e+00  8.3263e-04  1.9176e-03  3.0600e-04  0:00:23 1608
   393  9.0729e-04  2.6214e-03  1.5076e-03  2.3069e+00  9.0396e-04  1.8978e-03  3.0362e-04  0:00:18 1607
   394  9.8876e-04  2.7091e-03  1.5173e-03  2.3067e+00  9.8427e-04  1.8775e-03  3.0097e-04  0:00:15 1606
   395  1.0743e-03  2.7891e-03  1.5223e-03  2.3131e+00  1.0686e-03  1.8702e-03  2.9771e-04  0:00:12 1605
   396  1.1599e-03  2.8585e-03  1.5238e-03  2.3293e+00  1.1530e-03  1.8623e-03  2.9265e-04  0:05:30 1604

  iter  continuity  x-velocity  y-velocity  z-velocity      energy           k       omega     time/iter
   397  1.2427e-03  2.9148e-03  1.5225e-03  2.3554e+00  1.2346e-03  1.8512e-03  2.9068e-04  0:04:24 1603
   398  1.3206e-03  2.9566e-03  1.5193e-03  2.3883e+00  1.3113e-03  1.8418e-03  2.8868e-04  0:03:31 1602
   399  1.3919e-03  2.9825e-03  1.5156e-03  2.4268e+00  1.3815e-03  1.8348e-03  2.8716e-04  0:02:49 1601
   400  1.4551e-03  2.9916e-03  1.5129e-03  2.4730e+00  1.4437e-03  1.8399e-03  2.8396e-04  0:02:15 1600
   401  1.5093e-03  2.9835e-03  1.5124e-03  2.5237e+00  1.4968e-03  1.8442e-03  2.7983e-04  0:01:48 1599
   402  1.5536e-03  2.9585e-03  1.5158e-03  2.5816e+00  1.5402e-03  1.8453e-03  2.7561e-04  0:01:26 1598
   403  1.5876e-03  2.9169e-03  1.5241e-03  2.6456e+00  1.5734e-03  1.8364e-03  2.7321e-04  0:01:09 1597
   404  1.6109e-03  2.8599e-03  1.5378e-03  2.7120e+00  1.5959e-03  1.8257e-03  2.7232e-04  0:00:55 1596
   405  1.6234e-03  2.7898e-03  1.5575e-03  2.7830e+00  1.6077e-03  1.8220e-03  2.7307e-04  0:00:44 1595
   406  1.6252e-03  2.7083e-03  1.5834e-03  2.8555e+00  1.6090e-03  1.8111e-03  2.7012e-04  0:00:35 1594
   407  1.6165e-03  2.6179e-03  1.6149e-03  2.9275e+00  1.5999e-03  1.7993e-03  2.6945e-04  0:00:28 1593

  iter  continuity  x-velocity  y-velocity  z-velocity      energy           k       omega     time/iter
   408  1.5977e-03  2.5211e-03  1.6518e-03  2.9973e+00  1.5807e-03  1.7829e-03  2.6772e-04  0:00:23 1592
   409  1.5691e-03  2.4208e-03  1.6930e-03  3.0672e+00  1.5521e-03  1.7661e-03  2.6570e-04  0:00:18 1591
   410  1.5315e-03  2.3203e-03  1.7375e-03  3.1355e+00  1.5144e-03  1.7552e-03  2.6561e-04  0:00:14 1590
   411  1.4854e-03  2.2237e-03  1.7839e-03  3.1974e+00  1.4684e-03  1.7462e-03  2.6708e-04  0:05:29 1589
   412  1.4318e-03  2.1349e-03  1.8309e-03  3.2540e+00  1.4151e-03  1.7362e-03  2.6846e-04  0:04:23 1588
   413  1.3716e-03  2.0581e-03  1.8770e-03  3.3012e+00  1.3554e-03  1.7214e-03  2.6924e-04  0:03:30 1587
   414  1.3059e-03  1.9972e-03  1.9210e-03  3.3388e+00  1.2903e-03  1.7122e-03  2.7096e-04  0:02:48 1586
   415  1.2359e-03  1.9557e-03  1.9617e-03  3.3648e+00  1.2210e-03  1.7086e-03  2.7198e-04  0:02:15 1585
   416  1.1630e-03  1.9355e-03  1.9981e-03  3.3827e+00  1.1490e-03  1.7020e-03  2.7159e-04  0:01:48 1584
   417  1.0883e-03  1.9371e-03  2.0292e-03  3.3925e+00  1.0755e-03  1.6977e-03  2.7172e-04  0:01:26 1583
   418  1.0138e-03  1.9592e-03  2.0542e-03  3.3934e+00  1.0023e-03  1.6917e-03  2.7126e-04  0:01:09 1582

  iter  continuity  x-velocity  y-velocity  z-velocity      energy           k       omega     time/iter
   419  9.4109e-04  1.9993e-03  2.0726e-03  3.3837e+00  9.3108e-04  1.6952e-03  2.7319e-04  0:00:55 1581
   420  8.7253e-04  2.0538e-03  2.0837e-03  3.3640e+00  8.6420e-04  1.7021e-03  2.7588e-04  0:00:44 1580
   421  8.1042e-04  2.1188e-03  2.0871e-03  3.3313e+00  8.0394e-04  1.7045e-03  2.7781e-04  0:00:35 1579
   422  7.5738e-04  2.1907e-03  2.0825e-03  3.2854e+00  7.5288e-04  1.7064e-03  2.7934e-04  0:00:28 1578
   423  7.1591e-04  2.2657e-03  2.0698e-03  3.2290e+00  7.1341e-04  1.7060e-03  2.8156e-04  0:00:22 1577
   424  6.8806e-04  2.3405e-03  2.0490e-03  3.1647e+00  6.8747e-04  1.7022e-03  2.8327e-04  0:05:33 1576
   425  6.7481e-04  2.4119e-03  2.0202e-03  3.0939e+00  6.7585e-04  1.6967e-03  2.8412e-04  0:04:26 1575
   426  6.7579e-04  2.4775e-03  1.9839e-03  3.0175e+00  6.7807e-04  1.7038e-03  2.8507e-04  0:03:33 1574
   427  6.8921e-04  2.5350e-03  1.9404e-03  2.9361e+00  6.9228e-04  1.7152e-03  2.8429e-04  0:02:50 1573
   428  7.1243e-04  2.5828e-03  1.8903e-03  2.8520e+00  7.1583e-04  1.7222e-03  2.8321e-04  0:02:16 1572
   429  7.4246e-04  2.6197e-03  1.8342e-03  2.7661e+00  7.4582e-04  1.7156e-03  2.8246e-04  0:01:49 1571

  iter  continuity  x-velocity  y-velocity  z-velocity      energy           k       omega     time/iter
   430  7.7637e-04  2.6447e-03  1.7727e-03  2.6795e+00  7.7939e-04  1.6972e-03  2.8222e-04  0:01:27 1570
   431  8.1160e-04  2.6574e-03  1.7067e-03  2.5960e+00  8.1406e-04  1.6842e-03  2.8138e-04  0:01:10 1569
   432  8.4589e-04  2.6575e-03  1.6372e-03  2.5186e+00  8.4764e-04  1.6729e-03  2.7809e-04  0:00:56 1568
   433  8.7747e-04  2.6451e-03  1.5653e-03  2.4484e+00  8.7843e-04  1.6655e-03  2.7617e-04  0:00:44 1567
   434  9.0513e-04  2.6205e-03  1.4922e-03  2.3866e+00  9.0524e-04  1.6609e-03  2.7489e-04  0:00:36 1566
   435  9.2783e-04  2.5842e-03  1.4192e-03  2.3339e+00  9.2708e-04  1.6583e-03  2.7269e-04  0:00:28 1565
   436  9.4483e-04  2.5368e-03  1.3478e-03  2.2902e+00  9.4321e-04  1.6584e-03  2.6978e-04  0:00:23 1564
   437  9.5563e-04  2.4794e-03  1.2798e-03  2.2563e+00  9.5317e-04  1.6580e-03  2.6709e-04  0:00:18 1563
   438  9.5999e-04  2.4132e-03  1.2167e-03  2.2296e+00  9.5672e-04  1.6599e-03  2.6432e-04  0:00:15 1562
   439  9.5776e-04  2.3396e-03  1.1602e-03  2.2087e+00  9.5373e-04  1.6582e-03  2.6109e-04  0:00:12 1561
   440  9.4897e-04  2.2597e-03  1.1118e-03  2.1928e+00  9.4422e-04  1.6514e-03  2.5798e-04  0:05:21 1560

  iter  continuity  x-velocity  y-velocity  z-velocity      energy           k       omega     time/iter
   441  9.3380e-04  2.1753e-03  1.0725e-03  2.1800e+00  9.2839e-04  1.6306e-03  2.5504e-04  0:04:17 1559
   442  9.1249e-04  2.0878e-03  1.0431e-03  2.1702e+00  9.0648e-04  1.6197e-03  2.5141e-04  0:03:25 1558
   443  8.8543e-04  1.9993e-03  1.0238e-03  2.1620e+00  8.7887e-04  1.6143e-03  2.5049e-04  0:02:44 1557
   444  8.5315e-04  1.9118e-03  1.0143e-03  2.1536e+00  8.4611e-04  1.6129e-03  2.4857e-04  0:02:11 1556
   445  8.1621e-04  1.8271e-03  1.0137e-03  2.1439e+00  8.0875e-04  1.6073e-03  2.4586e-04  0:01:45 1555
   446  7.7509e-04  1.7474e-03  1.0207e-03  2.1329e+00  7.6727e-04  1.6011e-03  2.4436e-04  0:01:24 1554
   447  7.3035e-04  1.6747e-03  1.0338e-03  2.1195e+00  7.2221e-04  1.5942e-03  2.4410e-04  0:01:07 1553
   448  6.8281e-04  1.6108e-03  1.0513e-03  2.1039e+00  6.7443e-04  1.5852e-03  2.4077e-04  0:00:54 1552
   449  6.3337e-04  1.5570e-03  1.0716e-03  2.0863e+00  6.2479e-04  1.5744e-03  2.3909e-04  0:00:43 1551
   450  5.8281e-04  1.5143e-03  1.0930e-03  2.0691e+00  5.7411e-04  1.5676e-03  2.3856e-04  0:00:34 1550
   451  5.3205e-04  1.4832e-03  1.1143e-03  2.0529e+00  5.2330e-04  1.5570e-03  2.3799e-04  0:00:27 1549

  iter  continuity  x-velocity  y-velocity  z-velocity      energy           k       omega     time/iter
   452  4.8214e-04  1.4638e-03  1.1343e-03  2.0382e+00  4.7341e-04  1.5401e-03  2.3712e-04  0:00:22 1548
   453  4.3429e-04  1.4553e-03  1.1520e-03  2.0249e+00  4.2566e-04  1.5252e-03  2.3575e-04  0:00:18 1547
   454  3.8998e-04  1.4563e-03  1.1666e-03  2.0138e+00  3.8158e-04  1.5062e-03  2.3354e-04  0:00:14 1546
   455  3.5095e-04  1.4650e-03  1.1775e-03  2.0049e+00  3.4294e-04  1.4881e-03  2.3101e-04  0:00:11 1545
   456  3.1924e-04  1.4794e-03  1.1842e-03  1.9979e+00  3.1185e-04  1.4692e-03  2.2898e-04  0:05:18 1544
   457  2.9684e-04  1.4975e-03  1.1866e-03  1.9920e+00  2.9031e-04  1.4556e-03  2.2567e-04  0:04:14 1543
   458  2.8524e-04  1.5172e-03  1.1844e-03  1.9891e+00  2.7980e-04  1.4316e-03  2.2256e-04  0:03:23 1542
   459  2.8472e-04  1.5368e-03  1.1776e-03  1.9888e+00  2.8048e-04  1.3991e-03  2.1907e-04  0:02:42 1541
   460  2.9413e-04  1.5550e-03  1.1658e-03  1.9900e+00  2.9105e-04  1.3704e-03  2.1446e-04  0:02:10 1540
   461  3.1125e-04  1.5705e-03  1.1495e-03  1.9926e+00  3.0916e-04  1.3455e-03  2.0944e-04  0:01:44 1539
   462  3.3351e-04  1.5820e-03  1.1288e-03  1.9936e+00  3.3217e-04  1.3205e-03  2.0397e-04  0:01:23 1538

  iter  continuity  x-velocity  y-velocity  z-velocity      energy           k       omega     time/iter
   463  3.5842e-04  1.5885e-03  1.1041e-03  1.9937e+00  3.5762e-04  1.2894e-03  1.9929e-04  0:01:06 1537
   464  3.8408e-04  1.5898e-03  1.0753e-03  1.9942e+00  3.8365e-04  1.2632e-03  1.9543e-04  0:00:53 1536
   465  4.0910e-04  1.5854e-03  1.0429e-03  1.9937e+00  4.0890e-04  1.2348e-03  1.9196e-04  0:00:42 1535
   466  4.3237e-04  1.5748e-03  1.0075e-03  1.9932e+00  4.3229e-04  1.2063e-03  1.8920e-04  0:00:34 1534
   467  4.5307e-04  1.5582e-03  9.6953e-04  1.9930e+00  4.5304e-04  1.1752e-03  1.8607e-04  0:00:27 1533
   468  4.7068e-04  1.5356e-03  9.2941e-04  1.9940e+00  4.7065e-04  1.1491e-03  1.8447e-04  0:00:22 1532
   469  4.8487e-04  1.5075e-03  8.8765e-04  1.9959e+00  4.8481e-04  1.1245e-03  1.8158e-04  0:00:17 1531
   470  4.9544e-04  1.4740e-03  8.4479e-04  1.9992e+00  4.9532e-04  1.0994e-03  1.7714e-04  0:00:14 1530
   471  5.0223e-04  1.4359e-03  8.0133e-04  2.0048e+00  5.0205e-04  1.0738e-03  1.7317e-04  0:05:17 1529
   472  5.0523e-04  1.3938e-03  7.5784e-04  2.0140e+00  5.0497e-04  1.0493e-03  1.7015e-04  0:04:13 1528
   473  5.0459e-04  1.3485e-03  7.1490e-04  2.0283e+00  5.0425e-04  1.0343e-03  1.6763e-04  0:03:23 1527

  iter  continuity  x-velocity  y-velocity  z-velocity      energy           k       omega     time/iter
   474  5.0053e-04  1.3009e-03  6.7312e-04  2.0467e+00  5.0011e-04  1.0188e-03  1.6500e-04  0:02:42 1526
   475  4.9337e-04  1.2520e-03  6.3306e-04  2.0703e+00  4.9288e-04  1.0025e-03  1.6263e-04  0:02:09 1525
   476  4.8365e-04  1.2026e-03  5.9529e-04  2.0968e+00  4.8308e-04  9.8919e-04  1.6137e-04  0:01:43 1524
   477  4.7174e-04  1.1539e-03  5.6035e-04  2.1244e+00  4.7109e-04  9.7734e-04  1.6054e-04  0:01:23 1523
   478  4.5807e-04  1.1068e-03  5.2871e-04  2.1531e+00  4.5734e-04  9.6543e-04  1.5769e-04  0:01:06 1522
   479  4.4323e-04  1.0626e-03  5.0079e-04  2.1804e+00  4.4241e-04  9.5866e-04  1.5617e-04  0:00:53 1521
   480  4.2812e-04  1.0222e-03  4.7687e-04  2.2048e+00  4.2720e-04  9.5802e-04  1.5458e-04  0:00:42 1520
   481  4.1344e-04  9.8656e-04  4.5713e-04  2.2247e+00  4.1239e-04  9.6220e-04  1.5346e-04  0:00:34 1519
   482  4.0021e-04  9.5631e-04  4.4157e-04  2.2385e+00  3.9900e-04  9.6414e-04  1.5200e-04  0:00:27 1518
   483  3.8930e-04  9.3200e-04  4.3004e-04  2.2460e+00  3.8790e-04  9.6834e-04  1.5009e-04  0:00:22 1517
   484  3.8144e-04  9.1369e-04  4.2220e-04  2.2464e+00  3.7981e-04  9.7413e-04  1.4811e-04  0:00:17 1516

  iter  continuity  x-velocity  y-velocity  z-velocity      energy           k       omega     time/iter
   485  3.7719e-04  9.0098e-04  4.1758e-04  2.2407e+00  3.7529e-04  9.8111e-04  1.4575e-04  0:00:14 1515
   486  3.7689e-04  8.9329e-04  4.1554e-04  2.2267e+00  3.7468e-04  9.8471e-04  1.4333e-04  0:00:11 1514
   487  3.8061e-04  8.8977e-04  4.1545e-04  2.2056e+00  3.7806e-04  9.8705e-04  1.4060e-04  0:05:11 1513
   488  3.8819e-04  8.8941e-04  4.1691e-04  2.1785e+00  3.8527e-04  9.8652e-04  1.3817e-04  0:04:09 1512
   489  3.9919e-04  8.9122e-04  4.1938e-04  2.1464e+00  3.9590e-04  9.8443e-04  1.3580e-04  0:03:19 1511
   490  4.1303e-04  8.9423e-04  4.2255e-04  2.1123e+00  4.0935e-04  9.8290e-04  1.3399e-04  0:02:39 1510
   491  4.2901e-04  8.9732e-04  4.2618e-04  2.0784e+00  4.2493e-04  9.7602e-04  1.3292e-04  0:02:07 1509
   492  4.4645e-04  8.9967e-04  4.3020e-04  2.0462e+00  4.4198e-04  9.6717e-04  1.3154e-04  0:01:42 1508
   493  4.6470e-04  9.0075e-04  4.3469e-04  2.0152e+00  4.5983e-04  9.5613e-04  1.2798e-04  0:01:21 1507
   494  4.8311e-04  8.9990e-04  4.3986e-04  1.9899e+00  4.7786e-04  9.4658e-04  1.2582e-04  0:01:05 1506
   495  5.0113e-04  8.9681e-04  4.4595e-04  1.9706e+00  4.9551e-04  9.3742e-04  1.2317e-04  0:00:52 1505

  iter  continuity  x-velocity  y-velocity  z-velocity      energy           k       omega     time/iter
   496  5.1830e-04  8.9135e-04  4.5319e-04  1.9585e+00  5.1232e-04  9.2631e-04  1.2066e-04  0:00:42 1504
   497  5.3423e-04  8.8358e-04  4.6198e-04  1.9498e+00  5.2790e-04  9.1169e-04  1.1857e-04  0:00:33 1503
   498  5.4859e-04  8.7319e-04  4.7258e-04  1.9426e+00  5.4192e-04  8.9766e-04  1.1610e-04  0:00:27 1502
   499  5.6107e-04  8.6024e-04  4.8465e-04  1.9356e+00  5.5406e-04  8.8290e-04  1.1378e-04  0:00:21 1501
   500  5.7145e-04  8.4494e-04  4.9824e-04  1.9278e+00  5.6414e-04  8.6419e-04  1.1108e-04  0:00:17 1500
   501  5.7959e-04  8.2753e-04  5.1338e-04  1.9171e+00  5.7199e-04  8.4365e-04  1.0752e-04  0:00:14 1499
   502  5.8538e-04  8.0843e-04  5.3006e-04  1.9011e+00  5.7750e-04  8.2621e-04  1.0565e-04  0:05:10 1498
   503  5.8877e-04  7.8818e-04  5.4819e-04  1.8810e+00  5.8064e-04  8.0809e-04  1.0418e-04  0:04:08 1497
   504  5.8973e-04  7.6722e-04  5.6752e-04  1.8565e+00  5.8137e-04  7.8726e-04  1.0270e-04  0:03:18 1496
   505  5.8829e-04  7.4613e-04  5.8778e-04  1.8282e+00  5.7972e-04  7.6414e-04  1.0111e-04  0:02:39 1495
   506  5.8450e-04  7.2547e-04  6.0868e-04  1.7971e+00  5.7575e-04  7.4225e-04  9.9508e-05  0:02:07 1494

  iter  continuity  x-velocity  y-velocity  z-velocity      energy           k       omega     time/iter
   507  5.7842e-04  7.0592e-04  6.2994e-04  1.7631e+00  5.6951e-04  7.2256e-04  9.7983e-05  0:01:41 1493
   508  5.7015e-04  6.8823e-04  6.5128e-04  1.7273e+00  5.6111e-04  7.0350e-04  9.5970e-05  0:01:21 1492
   509  5.5983e-04  6.7304e-04  6.7245e-04  1.6902e+00  5.5069e-04  6.8441e-04  9.4724e-05  0:01:05 1491
   510  5.4763e-04  6.6093e-04  6.9315e-04  1.6532e+00  5.3840e-04  6.6474e-04  9.3729e-05  0:00:52 1490
   511  5.3377e-04  6.5228e-04  7.1313e-04  1.6168e+00  5.2449e-04  6.4445e-04  9.2496e-05  0:00:41 1489
   512  5.1837e-04  6.4744e-04  7.3212e-04  1.5822e+00  5.0907e-04  6.2424e-04  9.0831e-05  0:00:33 1488
   513  5.0170e-04  6.4659e-04  7.4988e-04  1.5488e+00  4.9241e-04  6.0481e-04  8.8901e-05  0:00:26 1487
   514  4.8384e-04  6.4978e-04  7.6621e-04  1.5160e+00  4.7459e-04  5.8520e-04  8.6926e-05  0:00:21 1486
   515  4.6498e-04  6.5682e-04  7.8091e-04  1.4848e+00  4.5579e-04  5.6750e-04  8.4487e-05  0:00:17 1485
   516  4.4540e-04  6.6738e-04  7.9381e-04  1.4554e+00  4.3630e-04  5.5118e-04  8.1943e-05  0:00:14 1484
   517  4.2545e-04  6.8096e-04  8.0476e-04  1.4277e+00  4.1646e-04  5.3375e-04  8.0036e-05  0:00:11 1483

  iter  continuity  x-velocity  y-velocity  z-velocity      energy           k       omega     time/iter
   518  4.0537e-04  6.9697e-04  8.1362e-04  1.4028e+00  3.9653e-04  5.1707e-04  7.7980e-05  0:05:05 1482
   519  3.8541e-04  7.1470e-04  8.2029e-04  1.3806e+00  3.7676e-04  5.0079e-04  7.5546e-05  0:04:04 1481
   520  3.6597e-04  7.3348e-04  8.2468e-04  1.3615e+00  3.5753e-04  4.8629e-04  7.2996e-05  0:03:15 1480
   521  3.4721e-04  7.5266e-04  8.2673e-04  1.3450e+00  3.3903e-04  4.7412e-04  7.0956e-05  0:02:36 1479
   522  3.2936e-04  7.7161e-04  8.2642e-04  1.3308e+00  3.2146e-04  4.6149e-04  6.9338e-05  0:02:05 1478
   523  3.1259e-04  7.8975e-04  8.2372e-04  1.3188e+00  3.0501e-04  4.5059e-04  6.7797e-05  0:01:40 1477
   524  2.9704e-04  8.0651e-04  8.1863e-04  1.3082e+00  2.8981e-04  4.3942e-04  6.6496e-05  0:01:20 1476
   525  2.8277e-04  8.2154e-04  8.1121e-04  1.2991e+00  2.7591e-04  4.3134e-04  6.5316e-05  0:01:04 1475
   526  2.6983e-04  8.3443e-04  8.0152e-04  1.2912e+00  2.6336e-04  4.2103e-04  6.4173e-05  0:00:51 1474
   527  2.5834e-04  8.4493e-04  7.8961e-04  1.2838e+00  2.5227e-04  4.0984e-04  6.2984e-05  0:00:41 1473
   528  2.4829e-04  8.5284e-04  7.7559e-04  1.2774e+00  2.4263e-04  3.9972e-04  6.1813e-05  0:00:33 1472

  iter  continuity  x-velocity  y-velocity  z-velocity      energy           k       omega     time/iter
   529  2.3958e-04  8.5797e-04  7.5957e-04  1.2721e+00  2.3432e-04  3.9232e-04  6.0732e-05  0:00:26 1471
   530  2.3209e-04  8.6022e-04  7.4166e-04  1.2663e+00  2.2721e-04  3.8423e-04  5.9866e-05  0:00:21 1470
   531  2.2567e-04  8.5954e-04  7.2202e-04  1.2605e+00  2.2115e-04  3.7417e-04  5.9137e-05  0:00:17 1469
   532  2.2016e-04  8.5589e-04  7.0079e-04  1.2534e+00  2.1596e-04  3.6525e-04  5.8628e-05  0:00:13 1468
   533  2.1538e-04  8.4931e-04  6.7816e-04  1.2455e+00  2.1145e-04  3.6097e-04  5.7724e-05  0:05:04 1467
   534  2.1118e-04  8.3988e-04  6.5429e-04  1.2362e+00  2.0748e-04  3.5708e-04  5.7157e-05  0:04:03 1466
   535  2.0742e-04  8.2773e-04  6.2941e-04  1.2257e+00  2.0392e-04  3.5078e-04  5.6599e-05  0:03:14 1465
   536  2.0401e-04  8.1302e-04  6.0372e-04  1.2146e+00  2.0065e-04  3.4629e-04  5.6088e-05  0:02:35 1464
   537  2.0088e-04  7.9596e-04  5.7744e-04  1.2027e+00  1.9762e-04  3.4306e-04  5.5652e-05  0:02:04 1463
   538  1.9799e-04  7.7678e-04  5.5080e-04  1.1880e+00  1.9479e-04  3.4208e-04  5.5548e-05  0:01:39 1462
   539  1.9535e-04  7.5577e-04  5.2403e-04  1.1702e+00  1.9217e-04  3.4244e-04  5.5368e-05  0:01:19 1461

  iter  continuity  x-velocity  y-velocity  z-velocity      energy           k       omega     time/iter
   540  1.9301e-04  7.3320e-04  4.9735e-04  1.1514e+00  1.8982e-04  3.4198e-04  5.5169e-05  0:01:03 1460
   541  1.9105e-04  7.0939e-04  4.7098e-04  1.1331e+00  1.8782e-04  3.4096e-04  5.4989e-05  0:00:51 1459
   542  1.8958e-04  6.8465e-04  4.4517e-04  1.1154e+00  1.8629e-04  3.4056e-04  5.4891e-05  0:00:41 1458
   543  1.8873e-04  6.5933e-04  4.2012e-04  1.0991e+00  1.8537e-04  3.4133e-04  5.4820e-05  0:00:32 1457
   544  1.8864e-04  6.3374e-04  3.9607e-04  1.0842e+00  1.8519e-04  3.4428e-04  5.4640e-05  0:00:26 1456
   545  1.8943e-04  6.0825e-04  3.7322e-04  1.0706e+00  1.8588e-04  3.4848e-04  5.4368e-05  0:00:21 1455
   546  1.9117e-04  5.8315e-04  3.5177e-04  1.0585e+00  1.8753e-04  3.5338e-04  5.4054e-05  0:00:17 1454
   547  1.9391e-04  5.5872e-04  3.3190e-04  1.0477e+00  1.9018e-04  3.5900e-04  5.3747e-05  0:00:13 1453
   548  1.9767e-04  5.3520e-04  3.1380e-04  1.0377e+00  1.9385e-04  3.6619e-04  5.3388e-05  0:00:11 1452
   549  2.0240e-04  5.1280e-04  2.9759e-04  1.0278e+00  1.9850e-04  3.7337e-04  5.2998e-05  0:04:59 1451
   550  2.0798e-04  4.9167e-04  2.8335e-04  1.0180e+00  2.0400e-04  3.7956e-04  5.2586e-05  0:03:59 1450

  iter  continuity  x-velocity  y-velocity  z-velocity      energy           k       omega     time/iter
   551  2.1431e-04  4.7192e-04  2.7121e-04  1.0078e+00  2.1026e-04  3.8386e-04  5.2237e-05  0:03:11 1449
   552  2.2121e-04  4.5361e-04  2.6118e-04  9.9759e-01  2.1708e-04  3.8717e-04  5.1729e-05  0:02:33 1448
   553  2.2851e-04  4.3674e-04  2.5326e-04  9.8720e-01  2.2431e-04  3.8970e-04  5.1277e-05  0:02:02 1447
   554  2.3601e-04  4.2129e-04  2.4743e-04  9.7586e-01  2.3174e-04  3.9207e-04  5.0779e-05  0:01:38 1446
   555  2.4355e-04  4.0718e-04  2.4363e-04  9.6287e-01  2.3920e-04  3.9376e-04  5.0208e-05  0:01:18 1445
   556  2.5092e-04  3.9430e-04  2.4173e-04  9.4782e-01  2.4649e-04  3.9284e-04  4.9610e-05  0:01:02 1444
   557  2.5797e-04  3.8256e-04  2.4166e-04  9.3133e-01  2.5346e-04  3.9029e-04  4.8850e-05  0:00:50 1443
   558  2.6453e-04  3.7178e-04  2.4323e-04  9.1341e-01  2.5995e-04  3.8760e-04  4.7955e-05  0:00:40 1442
   559  2.7047e-04  3.6186e-04  2.4632e-04  8.9418e-01  2.6580e-04  3.8447e-04  4.6838e-05  0:00:32 1441
   560  2.7565e-04  3.5266e-04  2.5079e-04  8.7400e-01  2.7090e-04  3.7951e-04  4.5882e-05  0:00:25 1440
   561  2.7997e-04  3.4395e-04  2.5653e-04  8.5275e-01  2.7514e-04  3.7393e-04  4.4962e-05  0:00:20 1439

  iter  continuity  x-velocity  y-velocity  z-velocity      energy           k       omega     time/iter
   562  2.8334e-04  3.3567e-04  2.6322e-04  8.3021e-01  2.7842e-04  3.6715e-04  4.4136e-05  0:00:16 1438
   563  2.8567e-04  3.2777e-04  2.7073e-04  8.0651e-01  2.8067e-04  3.5895e-04  4.3141e-05  0:00:13 1437
   564  2.8691e-04  3.2026e-04  2.7893e-04  7.8279e-01  2.8183e-04  3.5066e-04  4.2123e-05  0:00:10 1436
   565  2.8703e-04  3.1322e-04  2.8771e-04  7.5980e-01  2.8187e-04  3.4137e-04  4.1166e-05  0:04:55 1435
   566  2.8599e-04  3.0677e-04  2.9695e-04  7.3783e-01  2.8076e-04  3.3243e-04  4.0235e-05  0:03:56 1434
   567  2.8378e-04  3.0104e-04  3.0653e-04  7.1773e-01  2.7848e-04  3.2350e-04  3.9532e-05  0:03:09 1433
   568  2.8042e-04  2.9621e-04  3.1633e-04  6.9922e-01  2.7506e-04  3.1403e-04  3.8812e-05  0:02:31 1432
   569  2.7593e-04  2.9247e-04  3.2622e-04  6.8274e-01  2.7051e-04  3.0523e-04  3.7994e-05  0:02:01 1431
   570  2.7033e-04  2.9001e-04  3.3609e-04  6.6825e-01  2.6487e-04  2.9667e-04  3.7313e-05  0:01:36 1430
   571  2.6369e-04  2.8900e-04  3.4579e-04  6.5580e-01  2.5818e-04  2.8852e-04  3.6649e-05  0:01:17 1429
   572  2.5605e-04  2.8959e-04  3.5522e-04  6.4521e-01  2.5051e-04  2.8081e-04  3.6032e-05  0:01:02 1428

  iter  continuity  x-velocity  y-velocity  z-velocity      energy           k       omega     time/iter
   573  2.4750e-04  2.9188e-04  3.6426e-04  6.3642e-01  2.4193e-04  2.7382e-04  3.5359e-05  0:00:49 1427
   574  2.3811e-04  2.9591e-04  3.7278e-04  6.2892e-01  2.3254e-04  2.6793e-04  3.4680e-05  0:00:39 1426
   575  2.2801e-04  3.0166e-04  3.8070e-04  6.2229e-01  2.2242e-04  2.6186e-04  3.4130e-05  0:00:31 1425
   576  2.1728e-04  3.0902e-04  3.8790e-04  6.1622e-01  2.1170e-04  2.5593e-04  3.3387e-05  0:00:25 1424
   577  2.0606e-04  3.1785e-04  3.9431e-04  6.1065e-01  2.0048e-04  2.5023e-04  3.2553e-05  0:00:20 1423
   578  1.9447e-04  3.2796e-04  3.9983e-04  6.0536e-01  1.8891e-04  2.4441e-04  3.1848e-05  0:00:16 1422
   579  1.8263e-04  3.3910e-04  4.0442e-04  6.0017e-01  1.7710e-04  2.3984e-04  3.1137e-05  0:00:13 1421
   580  1.7068e-04  3.5103e-04  4.0799e-04  5.9451e-01  1.6519e-04  2.3585e-04  3.0459e-05  0:04:54 1420
   581  1.5877e-04  3.6347e-04  4.1050e-04  5.8834e-01  1.5333e-04  2.3173e-04  2.9921e-05  0:03:55 1419
   582  1.4701e-04  3.7612e-04  4.1191e-04  5.8160e-01  1.4163e-04  2.2916e-04  2.9393e-05  0:03:08 1418
   583  1.3559e-04  3.8872e-04  4.1217e-04  5.7455e-01  1.3029e-04  2.2572e-04  2.8836e-05  0:02:30 1417

  iter  continuity  x-velocity  y-velocity  z-velocity      energy           k       omega     time/iter
   584  1.2466e-04  4.0100e-04  4.1126e-04  5.6755e-01  1.1947e-04  2.2249e-04  2.8333e-05  0:02:00 1416
   585  1.1438e-04  4.1272e-04  4.0919e-04  5.6051e-01  1.0931e-04  2.2008e-04  2.8008e-05  0:01:36 1415
   586  1.0491e-04  4.2366e-04  4.0595e-04  5.5340e-01  1.0000e-04  2.1746e-04  2.7872e-05  0:01:17 1414
   587  9.6404e-05  4.3363e-04  4.0155e-04  5.4626e-01  9.1688e-05  2.1442e-04  2.7802e-05  0:01:01 1413
   588  8.8999e-05  4.4244e-04  3.9601e-04  5.3935e-01  8.4525e-05  2.1086e-04  2.7679e-05  0:00:49 1412
   589  8.2817e-05  4.4999e-04  3.8938e-04  5.3289e-01  7.8639e-05  2.0781e-04  2.7590e-05  0:00:39 1411
   590  7.7927e-05  4.5615e-04  3.8169e-04  5.2680e-01  7.4097e-05  2.0493e-04  2.7184e-05  0:00:31 1410
   591  7.4335e-05  4.6085e-04  3.7301e-04  5.2100e-01  7.0893e-05  2.0230e-04  2.6947e-05  0:00:25 1409
   592  7.1954e-05  4.6402e-04  3.6340e-04  5.1531e-01  6.8924e-05  1.9942e-04  2.6821e-05  0:00:20 1408
   593  7.0635e-05  4.6564e-04  3.5294e-04  5.0948e-01  6.8014e-05  1.9667e-04  2.6611e-05  0:00:16 1407
   594  7.0167e-05  4.6571e-04  3.4170e-04  5.0328e-01  6.7931e-05  1.9453e-04  2.6422e-05  0:00:13 1406

  iter  continuity  x-velocity  y-velocity  z-velocity      energy           k       omega     time/iter
   595  7.0319e-05  4.6425e-04  3.2978e-04  4.9668e-01  6.8426e-05  1.9188e-04  2.6230e-05  0:00:10 1405
   596  7.0863e-05  4.6129e-04  3.1727e-04  4.8954e-01  6.9263e-05  1.8991e-04  2.6050e-05  0:04:49 1404
   597  7.1596e-05  4.5688e-04  3.0427e-04  4.8215e-01  7.0236e-05  1.8704e-04  2.5799e-05  0:03:51 1403
   598  7.2352e-05  4.5111e-04  2.9088e-04  4.7507e-01  7.1182e-05  1.8452e-04  2.5500e-05  0:03:05 1402
   599  7.3004e-05  4.4404e-04  2.7719e-04  4.6846e-01  7.1980e-05  1.8207e-04  2.5184e-05  0:02:28 1401
   600  7.3464e-05  4.3577e-04  2.6331e-04  4.6246e-01  7.2548e-05  1.8022e-04  2.4838e-05  0:01:58 1400
   601  7.3675e-05  4.2641e-04  2.4933e-04  4.5710e-01  7.2834e-05  1.7839e-04  2.4501e-05  0:01:34 1399
   602  7.3609e-05  4.1608e-04  2.3534e-04  4.5237e-01  7.2818e-05  1.7648e-04  2.4138e-05  0:01:15 1398
   603  7.3265e-05  4.0489e-04  2.2144e-04  4.4829e-01  7.2502e-05  1.7471e-04  2.3827e-05  0:01:00 1397
   604  7.2659e-05  3.9296e-04  2.0771e-04  4.4498e-01  7.1906e-05  1.7367e-04  2.3585e-05  0:00:48 1396
   605  7.1822e-05  3.8042e-04  1.9424e-04  4.4145e-01  7.1065e-05  1.7215e-04  2.3402e-05  0:00:39 1395

  iter  continuity  x-velocity  y-velocity  z-velocity      energy           k       omega     time/iter
   606  7.0804e-05  3.6739e-04  1.8110e-04  4.3763e-01  7.0033e-05  1.7063e-04  2.3258e-05  0:00:31 1394
   607  6.9669e-05  3.5403e-04  1.6838e-04  4.3341e-01  6.8873e-05  1.7034e-04  2.3101e-05  0:00:25 1393
   608  6.8494e-05  3.4049e-04  1.5613e-04  4.2872e-01  6.7667e-05  1.6937e-04  2.2952e-05  0:00:20 1392
   609  6.7365e-05  3.2688e-04  1.4444e-04  4.2292e-01  6.6502e-05  1.6772e-04  2.2867e-05  0:00:16 1391
   610  6.6374e-05  3.1334e-04  1.3333e-04  4.1566e-01  6.5472e-05  1.6680e-04  2.2836e-05  0:00:13 1390
   611  6.5622e-05  3.0001e-04  1.2290e-04  4.0733e-01  6.4678e-05  1.6574e-04  2.2839e-05  0:04:48 1389
   612  6.5188e-05  2.8702e-04  1.1319e-04  3.9909e-01  6.4203e-05  1.6416e-04  2.2809e-05  0:03:50 1388
   613  6.5149e-05  2.7445e-04  1.0422e-04  3.9251e-01  6.4123e-05  1.6243e-04  2.2853e-05  0:03:04 1387
   614  6.5569e-05  2.6242e-04  9.6037e-05  3.8701e-01  6.4505e-05  1.6125e-04  2.2971e-05  0:02:27 1386
   615  6.6479e-05  2.5102e-04  8.8708e-05  3.8087e-01  6.5380e-05  1.5953e-04  2.3133e-05  0:01:58 1385
   616  6.7877e-05  2.4033e-04  8.2256e-05  3.7353e-01  6.6747e-05  1.5751e-04  2.3279e-05  0:01:34 1384

  iter  continuity  x-velocity  y-velocity  z-velocity      energy           k       omega     time/iter
   617  6.9737e-05  2.3041e-04  7.6673e-05  3.6624e-01  6.8577e-05  1.5557e-04  2.3391e-05  0:01:15 1383
   618  7.2025e-05  2.2132e-04  7.2039e-05  3.6009e-01  7.0837e-05  1.5366e-04  2.3494e-05  0:01:00 1382
   619  7.4669e-05  2.1306e-04  6.8358e-05  3.5747e-01  7.3453e-05  1.5195e-04  2.3619e-05  0:00:48 1381
   620  7.7592e-05  2.0565e-04  6.5632e-05  3.6009e-01  7.6348e-05  1.5014e-04  2.3791e-05  0:00:38 1380
   621  8.0723e-05  1.9908e-04  6.3875e-05  3.6862e-01  7.9448e-05  1.4831e-04  2.3946e-05  0:00:31 1379
   622  8.3984e-05  1.9331e-04  6.3009e-05  3.8297e-01  8.2675e-05  1.4607e-04  2.4119e-05  0:05:00 1378
   623  8.7301e-05  1.8830e-04  6.2983e-05  4.0181e-01  8.5956e-05  1.4361e-04  2.4302e-05  0:04:00 1377
   624  9.0610e-05  1.8400e-04  6.3733e-05  4.2348e-01  8.9226e-05  1.4128e-04  2.4456e-05  0:03:12 1376
[...]
  1850  1.6552e-05  2.6834e-05  1.6903e-05  1.0278e+01  1.6483e-05  5.5597e-05  4.9580e-06  0:00:20  150
  1851  1.6868e-05  2.6854e-05  1.6890e-05  1.0453e+01  1.6802e-05  5.6147e-05  4.9721e-06  0:00:16  149
  1852  1.7277e-05  2.6871e-05  1.6866e-05  1.0635e+01  1.7214e-05  5.6741e-05  4.9848e-06  0:00:12  148
  1853  1.7775e-05  2.6884e-05  1.6832e-05  1.0829e+01  1.7714e-05  5.7350e-05  5.0011e-06  0:00:10  147
  1854  1.8355e-05  2.6890e-05  1.6788e-05  1.1039e+01  1.8297e-05  5.6921e-05  5.0190e-06  0:00:08  146
  1855  1.9003e-05  2.6879e-05  1.6732e-05  1.1269e+01  1.8948e-05  5.6677e-05  5.0213e-06  0:00:06  145
  1856  1.9665e-05  2.6849e-05  1.6645e-05  1.1516e+01  1.9613e-05  5.6852e-05  4.9812e-06  0:00:05  144
  1857  2.0342e-05  2.6806e-05  1.6537e-05  1.1780e+01  2.0292e-05  5.6137e-05  4.9396e-06  0:00:04  143
  1858  2.1020e-05  2.6746e-05  1.6431e-05  1.2063e+01  2.0973e-05  5.5466e-05  4.8894e-06  0:00:03  142
  1859  2.1648e-05  2.6667e-05  1.6312e-05  1.2360e+01  2.1603e-05  5.5018e-05  4.8087e-06  0:00:02  141

  iter  continuity  x-velocity  y-velocity  z-velocity      energy           k       omega     time/iter
  1860  2.2225e-05  2.6567e-05  1.6180e-05  1.2667e+01  2.2183e-05  5.4581e-05  4.7315e-06  0:00:02  140
  1861  2.2704e-05  2.6443e-05  1.6037e-05  1.2980e+01  2.2663e-05  5.4493e-05  4.6545e-06  0:00:02  139
  1862  2.3056e-05  2.6292e-05  1.5883e-05  1.3302e+01  2.3016e-05  5.4262e-05  4.5696e-06  0:00:01  138
  1863  2.3296e-05  2.6115e-05  1.5730e-05  1.3629e+01  2.3258e-05  5.4541e-05  4.5259e-06  0:00:01  137
  1864  2.3390e-05  2.5911e-05  1.5563e-05  1.3952e+01  2.3353e-05  5.5200e-05  4.4938e-06  0:00:28  136
  1865  2.3401e-05  2.5681e-05  1.5381e-05  1.4265e+01  2.3365e-05  5.5803e-05  4.4701e-06  0:00:22  135
  1866  2.3287e-05  2.5421e-05  1.5186e-05  1.4566e+01  2.3251e-05  5.6379e-05  4.4568e-06  0:00:18  134
  1867  2.3100e-05  2.5135e-05  1.4982e-05  1.4849e+01  2.3065e-05  5.6885e-05  4.4454e-06  0:00:14  133
  1868  2.2896e-05  2.4829e-05  1.4776e-05  1.5114e+01  2.2861e-05  5.7427e-05  4.4233e-06  0:00:11  132
  1869  2.2678e-05  2.4504e-05  1.4566e-05  1.5357e+01  2.2644e-05  5.7447e-05  4.4072e-06  0:00:09  131
  1870  2.2456e-05  2.4165e-05  1.4353e-05  1.5582e+01  2.2424e-05  5.6573e-05  4.4111e-06  0:00:07  130

  iter  continuity  x-velocity  y-velocity  z-velocity      energy           k       omega     time/iter
  1871  2.2255e-05  2.3814e-05  1.4143e-05  1.5789e+01  2.2223e-05  5.5415e-05  4.4141e-06  0:00:06  129
  1872  2.2049e-05  2.3455e-05  1.3934e-05  1.5967e+01  2.2018e-05  5.4530e-05  4.4027e-06  0:00:04  128
  1873  2.1840e-05  2.3087e-05  1.3729e-05  1.6114e+01  2.1810e-05  5.3701e-05  4.3631e-06  0:00:04  127
  1874  2.1643e-05  2.2715e-05  1.3532e-05  1.6231e+01  2.1614e-05  5.3125e-05  4.3644e-06  0:00:03  126
  1875  2.1489e-05  2.2348e-05  1.3341e-05  1.6320e+01  2.1461e-05  5.2619e-05  4.3800e-06  0:00:02  125
  1876  2.1378e-05  2.1991e-05  1.3156e-05  1.6387e+01  2.1352e-05  5.2092e-05  4.3943e-06  0:00:02  124
  1877  2.1322e-05  2.1649e-05  1.2977e-05  1.6426e+01  2.1297e-05  5.0940e-05  4.4090e-06  0:00:01  123
  1878  2.1331e-05  2.1322e-05  1.2803e-05  1.6447e+01  2.1307e-05  5.0161e-05  4.4077e-06  0:00:01  122
  1879  2.1415e-05  2.1017e-05  1.2639e-05  1.6454e+01  2.1393e-05  4.9366e-05  4.4060e-06  0:00:01  121
  1880  2.1529e-05  2.0733e-05  1.2472e-05  1.6443e+01  2.1509e-05  4.8036e-05  4.4111e-06  0:00:01  120
  1881  2.1648e-05  2.0469e-05  1.2302e-05  1.6419e+01  2.1629e-05  4.7190e-05  4.4216e-06  0:00:01  119

  iter  continuity  x-velocity  y-velocity  z-velocity      energy           k       omega     time/iter
  1882  2.1750e-05  2.0224e-05  1.2131e-05  1.6378e+01  2.1733e-05  4.6519e-05  4.4139e-06  0:00:24  118
  1883  2.1816e-05  1.9994e-05  1.1955e-05  1.6327e+01  2.1800e-05  4.5867e-05  4.4103e-06  0:00:19  117
  1884  2.1819e-05  1.9776e-05  1.1778e-05  1.6261e+01  2.1805e-05  4.5430e-05  4.3961e-06  0:00:15  116
  1885  2.1739e-05  1.9564e-05  1.1597e-05  1.6173e+01  2.1726e-05  4.5008e-05  4.3734e-06  0:00:12  115
  1886  2.1541e-05  1.9354e-05  1.1410e-05  1.6060e+01  2.1530e-05  4.4537e-05  4.3495e-06  0:00:10  114
  1887  2.1272e-05  1.9145e-05  1.1220e-05  1.5924e+01  2.1262e-05  4.3993e-05  4.3091e-06  0:00:08  113
  1888  2.0937e-05  1.8935e-05  1.1024e-05  1.5765e+01  2.0928e-05  4.3556e-05  4.2699e-06  0:00:06  112
  1889  2.0549e-05  1.8725e-05  1.0820e-05  1.5586e+01  2.0541e-05  4.2867e-05  4.2342e-06  0:00:05  111
  1890  2.0131e-05  1.8516e-05  1.0608e-05  1.5391e+01  2.0124e-05  4.1597e-05  4.2003e-06  0:00:04  110
  1891  1.9705e-05  1.8308e-05  1.0388e-05  1.5177e+01  1.9700e-05  4.0486e-05  4.1660e-06  0:00:03  109
  1892  1.9289e-05  1.8104e-05  1.0161e-05  1.4941e+01  1.9284e-05  3.9678e-05  4.1157e-06  0:00:02  108

  iter  continuity  x-velocity  y-velocity  z-velocity      energy           k       omega     time/iter
  1893  1.8884e-05  1.7907e-05  9.9287e-06  1.4687e+01  1.8880e-05  3.8862e-05  4.0795e-06  0:00:02  107
  1894  1.8485e-05  1.7718e-05  9.6928e-06  1.4419e+01  1.8481e-05  3.8118e-05  4.0481e-06  0:00:01  106
  1895  1.8085e-05  1.7541e-05  9.4573e-06  1.4134e+01  1.8082e-05  3.7488e-05  4.0227e-06  0:00:01  105
  1896  1.7675e-05  1.7377e-05  9.2264e-06  1.3835e+01  1.7672e-05  3.6962e-05  4.0056e-06  0:00:01  104
  1897  1.7252e-05  1.7228e-05  9.0054e-06  1.3523e+01  1.7249e-05  3.6529e-05  3.9940e-06  0:00:01  103
  1898  1.6808e-05  1.7097e-05  8.7981e-06  1.3197e+01  1.6805e-05  3.6248e-05  3.9815e-06  0:00:01  102
  1899  1.6311e-05  1.6985e-05  8.6011e-06  1.2863e+01  1.6307e-05  3.6091e-05  3.9609e-06  0:00:00  101
  1900  1.5837e-05  1.6896e-05  8.4346e-06  1.2526e+01  1.5833e-05  3.6015e-05  3.9466e-06  0:00:20  100
  1901  1.5378e-05  1.6833e-05  8.2978e-06  1.2184e+01  1.5373e-05  3.5962e-05  3.9387e-06  0:00:16   99
  1902  1.4946e-05  1.6798e-05  8.1935e-06  1.1840e+01  1.4940e-05  3.5930e-05  3.9427e-06  0:00:13   98
  1903  1.4549e-05  1.6792e-05  8.1213e-06  1.1493e+01  1.4542e-05  3.5966e-05  3.9509e-06  0:00:10   97

  iter  continuity  x-velocity  y-velocity  z-velocity      energy           k       omega     time/iter
  1904  1.4197e-05  1.6815e-05  8.0809e-06  1.1142e+01  1.4188e-05  3.6012e-05  3.9531e-06  0:00:08   96
  1905  1.3899e-05  1.6864e-05  8.0705e-06  1.0789e+01  1.3889e-05  3.6113e-05  3.9728e-06  0:00:06   95
  1906  1.3656e-05  1.6937e-05  8.0887e-06  1.0436e+01  1.3645e-05  3.6289e-05  3.9929e-06  0:00:05   94
  1907  1.3462e-05  1.7030e-05  8.1321e-06  1.0083e+01  1.3448e-05  3.6522e-05  4.0153e-06  0:00:04   93
  1908  1.3301e-05  1.7137e-05  8.1937e-06  9.7333e+00  1.3285e-05  3.6760e-05  4.0328e-06  0:00:03   92
  1909  1.3161e-05  1.7250e-05  8.2734e-06  9.3878e+00  1.3144e-05  3.6970e-05  4.0464e-06  0:00:02   91
  1910  1.3047e-05  1.7365e-05  8.3672e-06  9.0486e+00  1.3029e-05  3.7184e-05  4.0587e-06  0:00:02   90
  1911  1.2947e-05  1.7474e-05  8.4675e-06  8.7183e+00  1.2928e-05  3.7359e-05  4.0671e-06  0:00:02   89
  1912  1.2845e-05  1.7571e-05  8.5709e-06  8.4012e+00  1.2825e-05  3.7494e-05  4.0721e-06  0:00:01   88
  1913  1.2722e-05  1.7647e-05  8.6751e-06  8.1015e+00  1.2701e-05  3.7549e-05  4.0681e-06  0:00:01   87
  1914  1.2568e-05  1.7699e-05  8.7786e-06  7.8213e+00  1.2545e-05  3.7463e-05  4.0584e-06  0:00:01   86

  iter  continuity  x-velocity  y-velocity  z-velocity      energy           k       omega     time/iter
  1915  1.2377e-05  1.7722e-05  8.8802e-06  7.5660e+00  1.2353e-05  3.7316e-05  4.0459e-06  0:00:01   85
  1916  1.2152e-05  1.7715e-05  8.9783e-06  7.3395e+00  1.2128e-05  3.7311e-05  4.0245e-06  0:00:00   84
  1917  1.1900e-05  1.7677e-05  9.0736e-06  7.1466e+00  1.1875e-05  3.7346e-05  3.9962e-06  0:00:00   83
  1918  1.1628e-05  1.7612e-05  9.1654e-06  6.9905e+00  1.1602e-05  3.7393e-05  3.9671e-06  0:00:17   82
  1919  1.1349e-05  1.7520e-05  9.2538e-06  6.8740e+00  1.1323e-05  3.7736e-05  3.9031e-06  0:00:13   81
  1920  1.1073e-05  1.7404e-05  9.3386e-06  6.7992e+00  1.1046e-05  3.7636e-05  3.8341e-06  0:00:10   80
  1921  1.0826e-05  1.7268e-05  9.4157e-06  6.7659e+00  1.0799e-05  3.7212e-05  3.7964e-06  0:00:08   79
  1922  1.0636e-05  1.7114e-05  9.4938e-06  6.7738e+00  1.0609e-05  3.6918e-05  3.7439e-06  0:00:07   78
  1923  1.0512e-05  1.6945e-05  9.5603e-06  6.8209e+00  1.0484e-05  3.6436e-05  3.6877e-06  0:00:05   77
  1924  1.0461e-05  1.6775e-05  9.6240e-06  6.9039e+00  1.0432e-05  3.5900e-05  3.6415e-06  0:00:04   76
  1925  1.0480e-05  1.6608e-05  9.6802e-06  7.0166e+00  1.0452e-05  3.5431e-05  3.6154e-06  0:00:03   75

  iter  continuity  x-velocity  y-velocity  z-velocity      energy           k       omega     time/iter
  1926  1.0564e-05  1.6449e-05  9.7279e-06  7.1565e+00  1.0536e-05  3.5058e-05  3.5835e-06  0:00:03   74
  1927  1.0703e-05  1.6303e-05  9.7672e-06  7.3179e+00  1.0675e-05  3.4779e-05  3.5522e-06  0:00:02   73
  1928  1.0884e-05  1.6171e-05  9.7982e-06  7.4948e+00  1.0856e-05  3.4830e-05  3.5399e-06  0:00:02   72
  1929  1.1096e-05  1.6057e-05  9.8216e-06  7.6826e+00  1.1068e-05  3.4854e-05  3.5322e-06  0:00:01   71
  1930  1.1325e-05  1.5962e-05  9.8377e-06  7.8780e+00  1.1296e-05  3.4860e-05  3.5326e-06  0:00:01   70
  1931  1.1561e-05  1.5887e-05  9.8459e-06  8.0783e+00  1.1532e-05  3.4964e-05  3.5431e-06  0:00:01   69
  1932  1.1794e-05  1.5828e-05  9.8257e-06  8.2785e+00  1.1764e-05  3.5193e-05  3.5606e-06  0:00:01   68
  1933  1.2011e-05  1.5792e-05  9.8224e-06  8.4761e+00  1.1981e-05  3.5464e-05  3.5503e-06  0:00:00   67
  1934  1.2213e-05  1.5770e-05  9.8131e-06  8.6698e+00  1.2181e-05  3.5836e-05  3.5200e-06  0:00:00   66
  1935  1.2381e-05  1.5758e-05  9.7936e-06  8.8548e+00  1.2348e-05  3.6151e-05  3.5105e-06  0:00:00   65
  1936  1.2524e-05  1.5763e-05  9.7738e-06  9.0304e+00  1.2490e-05  3.6560e-05  3.4994e-06  0:00:13   64

  iter  continuity  x-velocity  y-velocity  z-velocity      energy           k       omega     time/iter
  1937  1.2652e-05  1.5790e-05  9.7563e-06  9.1982e+00  1.2616e-05  3.6976e-05  3.4907e-06  0:00:10   63
  1938  1.2771e-05  1.5839e-05  9.7428e-06  9.3582e+00  1.2733e-05  3.7408e-05  3.4790e-06  0:00:08   62
  1939  1.2887e-05  1.5914e-05  9.7370e-06  9.5089e+00  1.2847e-05  3.7903e-05  3.4612e-06  0:00:06   61
  1940  1.3000e-05  1.6015e-05  9.7412e-06  9.6499e+00  1.2958e-05  3.9055e-05  3.4528e-06  0:00:05   60
  1941  1.3107e-05  1.6143e-05  9.7574e-06  9.7839e+00  1.3063e-05  4.0125e-05  3.4540e-06  0:00:04   59
  1942  1.3208e-05  1.6297e-05  9.7874e-06  9.9088e+00  1.3160e-05  4.0983e-05  3.4502e-06  0:00:03   58
  1943  1.3294e-05  1.6471e-05  9.8208e-06  1.0023e+01  1.3243e-05  4.1574e-05  3.4576e-06  0:00:02   57
  1944  1.3382e-05  1.6657e-05  9.8691e-06  1.0128e+01  1.3328e-05  4.2346e-05  3.4577e-06  0:00:02   56
  1945  1.3439e-05  1.6851e-05  9.9283e-06  1.0227e+01  1.3382e-05  4.3206e-05  3.4723e-06  0:00:02   55
  1946  1.3578e-05  1.7058e-05  1.0008e-05  1.0320e+01  1.3517e-05  4.4076e-05  3.4902e-06  0:00:01   54
  1947  1.3796e-05  1.7269e-05  1.0102e-05  1.0407e+01  1.3732e-05  4.4957e-05  3.5196e-06  0:00:01   53

  iter  continuity  x-velocity  y-velocity  z-velocity      energy           k       omega     time/iter
  1948  1.4091e-05  1.7480e-05  1.0210e-05  1.0495e+01  1.4024e-05  4.5903e-05  3.5533e-06  0:00:01   52
  1949  1.4464e-05  1.7688e-05  1.0334e-05  1.0584e+01  1.4395e-05  4.6880e-05  3.5873e-06  0:00:01   51
  1950  1.4925e-05  1.7888e-05  1.0473e-05  1.0677e+01  1.4853e-05  4.7894e-05  3.6245e-06  0:00:00   50
  1951  1.5475e-05  1.8079e-05  1.0629e-05  1.0782e+01  1.5401e-05  4.8870e-05  3.6711e-06  0:00:00   49
  1952  1.6118e-05  1.8257e-05  1.0799e-05  1.0899e+01  1.6043e-05  4.9789e-05  3.7314e-06  0:00:00   48
  1953  1.6876e-05  1.8422e-05  1.0989e-05  1.1032e+01  1.6800e-05  5.0678e-05  3.7904e-06  0:00:10   47
  1954  1.7738e-05  1.8572e-05  1.1193e-05  1.1181e+01  1.7662e-05  5.1499e-05  3.8433e-06  0:00:08   46
  1955  1.8701e-05  1.8708e-05  1.1409e-05  1.1352e+01  1.8625e-05  5.1395e-05  3.8925e-06  0:00:06   45
  1956  1.9761e-05  1.8819e-05  1.1637e-05  1.1547e+01  1.9686e-05  4.9805e-05  3.9110e-06  0:00:05   44
  1957  2.0901e-05  1.8891e-05  1.1875e-05  1.1765e+01  2.0827e-05  4.8564e-05  3.9044e-06  0:00:04   43
  1958  2.2088e-05  1.8941e-05  1.2111e-05  1.2006e+01  2.2015e-05  4.8907e-05  3.8778e-06  0:00:03   42

  iter  continuity  x-velocity  y-velocity  z-velocity      energy           k       omega     time/iter
  1959  2.3264e-05  1.8984e-05  1.2365e-05  1.2269e+01  2.3192e-05  4.8900e-05  3.8271e-06  0:00:02   41
  1960  2.4388e-05  1.9019e-05  1.2631e-05  1.2550e+01  2.4318e-05  4.9389e-05  3.7670e-06  0:00:02   40
  1961  2.5473e-05  1.9049e-05  1.2910e-05  1.2844e+01  2.5404e-05  4.9798e-05  3.6984e-06  0:00:01   39
  1962  2.6481e-05  1.9073e-05  1.3197e-05  1.3149e+01  2.6414e-05  5.0212e-05  3.6260e-06  0:00:01   38
  1963  2.7390e-05  1.9093e-05  1.3492e-05  1.3457e+01  2.7324e-05  5.0767e-05  3.5529e-06  0:00:01   37
  1964  2.8184e-05  1.9108e-05  1.3794e-05  1.3773e+01  2.8120e-05  5.1507e-05  3.5263e-06  0:00:01   36
  1965  2.8880e-05  1.9124e-05  1.4097e-05  1.4091e+01  2.8817e-05  5.2198e-05  3.5196e-06  0:00:00   35
  1966  2.9489e-05  1.9146e-05  1.4401e-05  1.4398e+01  2.9427e-05  5.2946e-05  3.5199e-06  0:00:00   34
  1967  3.0053e-05  1.9177e-05  1.4700e-05  1.4692e+01  2.9994e-05  5.3612e-05  3.5257e-06  0:00:00   33
  1968  3.0584e-05  1.9222e-05  1.4990e-05  1.4960e+01  3.0526e-05  5.5314e-05  3.5451e-06  0:00:00   32
  1969  3.1089e-05  1.9292e-05  1.5265e-05  1.5207e+01  3.1034e-05  5.7614e-05  3.5735e-06  0:00:00   31

  iter  continuity  x-velocity  y-velocity  z-velocity      energy           k       omega     time/iter
  1970  3.1565e-05  1.9391e-05  1.5524e-05  1.5437e+01  3.1512e-05  5.8520e-05  3.5804e-06  0:00:00   30
  1971  3.2004e-05  1.9518e-05  1.5764e-05  1.5649e+01  3.1954e-05  5.7798e-05  3.5821e-06  0:00:06   29
  1972  3.2381e-05  1.9665e-05  1.5982e-05  1.5843e+01  3.2334e-05  5.6886e-05  3.5900e-06  0:00:05   28
  1973  3.2681e-05  1.9829e-05  1.6175e-05  1.6015e+01  3.2636e-05  5.6203e-05  3.6072e-06  0:00:04   27
  1974  3.2912e-05  2.0010e-05  1.6343e-05  1.6161e+01  3.2869e-05  5.5603e-05  3.6471e-06  0:00:03   26
  1975  3.3051e-05  2.0207e-05  1.6484e-05  1.6282e+01  3.3012e-05  5.4843e-05  3.6814e-06  0:00:02   25
  1976  3.3108e-05  2.0422e-05  1.6597e-05  1.6371e+01  3.3072e-05  5.3985e-05  3.7195e-06  0:00:02   24
  1977  3.3103e-05  2.0658e-05  1.6682e-05  1.6436e+01  3.3069e-05  5.2356e-05  3.7600e-06  0:00:01   23
  1978  3.3058e-05  2.0911e-05  1.6735e-05  1.6474e+01  3.3027e-05  5.0374e-05  3.7926e-06  0:00:01   22
  1979  3.2991e-05  2.1177e-05  1.6756e-05  1.6487e+01  3.2962e-05  4.8929e-05  3.8517e-06  0:00:01   21
  1980  3.2904e-05  2.1456e-05  1.6745e-05  1.6475e+01  3.2878e-05  4.7834e-05  3.9144e-06  0:00:01   20

  iter  continuity  x-velocity  y-velocity  z-velocity      energy           k       omega     time/iter
  1981  3.2806e-05  2.1744e-05  1.6701e-05  1.6439e+01  3.2783e-05  4.7137e-05  3.9796e-06  0:00:00   19
  1982  3.2688e-05  2.2031e-05  1.6623e-05  1.6384e+01  3.2667e-05  4.6580e-05  4.0232e-06  0:00:00   18
  1983  3.2537e-05  2.2308e-05  1.6510e-05  1.6311e+01  3.2519e-05  4.6092e-05  4.0684e-06  0:00:00   17
  1984  3.2341e-05  2.2568e-05  1.6362e-05  1.6220e+01  3.2325e-05  4.5291e-05  4.1150e-06  0:00:00   16
  1985  3.2087e-05  2.2806e-05  1.6180e-05  1.6114e+01  3.2073e-05  4.5318e-05  4.1594e-06  0:00:03   15
  1986  3.1767e-05  2.3015e-05  1.5964e-05  1.5984e+01  3.1755e-05  4.5237e-05  4.1963e-06  0:00:02   14
  1987  3.1370e-05  2.3190e-05  1.5716e-05  1.5831e+01  3.1359e-05  4.5373e-05  4.2293e-06  0:00:02   13
  1988  3.0906e-05  2.3325e-05  1.5439e-05  1.5655e+01  3.0897e-05  4.5445e-05  4.2707e-06  0:00:01   12
  1989  3.0379e-05  2.3419e-05  1.5137e-05  1.5456e+01  3.0371e-05  4.5522e-05  4.3032e-06  0:00:01   11
  1990  2.9806e-05  2.3473e-05  1.4813e-05  1.5237e+01  2.9800e-05  4.5584e-05  4.3490e-06  0:00:01   10
  1991  2.9211e-05  2.3491e-05  1.4474e-05  1.5005e+01  2.9205e-05  4.5917e-05  4.3828e-06  0:00:00    9

  iter  continuity  x-velocity  y-velocity  z-velocity      energy           k       omega     time/iter
  1992  2.8616e-05  2.3478e-05  1.4126e-05  1.4760e+01  2.8612e-05  4.5901e-05  4.4184e-06  0:00:00    8
  1993  2.8061e-05  2.3440e-05  1.3775e-05  1.4499e+01  2.8057e-05  4.5496e-05  4.4450e-06  0:00:00    7
  1994  2.7580e-05  2.3384e-05  1.3428e-05  1.4226e+01  2.7576e-05  4.3805e-05  4.4711e-06  0:00:00    6
  1995  2.7199e-05  2.3314e-05  1.3092e-05  1.3941e+01  2.7196e-05  4.2415e-05  4.5041e-06  0:00:00    5
  1996  2.6934e-05  2.3240e-05  1.2774e-05  1.3646e+01  2.6931e-05  4.1231e-05  4.5385e-06  0:00:00    4
  1997  2.6789e-05  2.3168e-05  1.2483e-05  1.3341e+01  2.6786e-05  4.0363e-05  4.5733e-06  0:00:00    3
  1998  2.6737e-05  2.3104e-05  1.2224e-05  1.3024e+01  2.6734e-05  3.9755e-05  4.6116e-06  0:00:00    2
  1999  2.6776e-05  2.3051e-05  1.2006e-05  1.2692e+01  2.6773e-05  3.9290e-05  4.6503e-06  0:00:00    1
  2000  2.6874e-05  2.3010e-05  1.1834e-05  1.2350e+01  2.6871e-05  3.9062e-05  4.6944e-06  0:00:00    0

> 
adjoint/                parallel/               server/
define/                 parametric-study/       solve/
display/                plot/                   surface/
exit                    preferences/            turbo-workflow/
file/                   print-license-usage     views/
mesh/                   report/

> /file/write-case-data project1
Fast-loading "C:\PROGRA~1\ANSYSI~1\v231\fluent\fluent23.1.0\\addons\afd\lib\hdfio.bin"
Done.

Writing to Engs-30669:"C:\Users\kebl7595\Desktop\CFD\Runs\Flap\Re 3e5\no flap test -20 degree\project1.cas.h5" in NODE0 mode and compression level 1 ...
       12996 cells,     1 zone  ...
       43722 faces,     8 zones ...
       17864 nodes,     1 zone  ...
  Done.
Done.

Writing to Engs-30669:"C:\Users\kebl7595\Desktop\CFD\Runs\Flap\Re 3e5\no flap test -20 degree\project1.dat.h5" in NODE0 mode and compression level 1 ...
  Writing results.
Done.

> /file/export/ascii "./surface.dat" wing te () no pressure mach-number quit no

Writing "./surface.dat"...

Writing information to ascii file ...
Done.


> /report/forces/wall-forces y -0.342020 -0.939693 0 y "Lift"

> /report/forces/wall-forces y 0.939693 -0.342020 0 y "Drag"

> ;/exit

> (cx-gui-do cx-set-list-tree-selections "NavigationPane*Frame2*Table1*List_Tree2" (list "Results|Graphics|Pathlines"))
(cx-gui-do cx-set-list-tree-selections "NavigationPane*Frame2*Table1*List_Tree2" (list "Results|Graphics|Pathlines"))
(cx-gui-do cx-activate-item "NavigationPane*Frame2*Table1*List_Tree2")
(cx-gui-do cx-set-list-tree-selections "NavigationPane*Frame2*Table1*List_Tree2" (list "Results|Graphics|Pathlines"))
(cx-gui-do cx-set-list-selections "Pathlines*Frame4*List3(Release from Surfaces)" '( 3))
(cx-gui-do cx-activate-item "Pathlines*Frame4*List3(Release from Surfaces)")
(cx-gui-do cx-activate-item "Pathlines*PanelButtons*PushButton1(OK)")

number tracked = 4332, escaped = 4309, incomplete = 23
(cx-gui-do cx-activate-item "Pathlines*PanelButtons*PushButton2(Cancel)")
(cx-gui-do cx-activate-item "ToolBar*Pointer*translate")
(cx-use-window-id 51)
(dolly-camera -0.304254 0.0692744 0)
(cx-use-window-id 51)
(dolly-camera 0.042335 0.0120307 0)
(cx-gui-do cx-activate-item "ToolBar*Copy*savepicture")
(cx-gui-do cx-activate-item "Save Picture*PanelButtons*PushButton1(OK)")
(cx-gui-do cx-set-file-dialog-entries "Select File" '( "C:/Users/kebl7595/Desktop/CFD/Results/Flap Graphs/Re 3e5/20 degrees no flap.png") "Hardcopy Files (*.png)")
(cx-gui-do cx-activate-item "Save Picture*PanelButtons*PushButton2(Cancel)")
/exit y

Posting ANSYS Product Improvement Program performance data 
Done.
Auto-Transcript Stop Time:  12:18:11, 22 May 2024 GMT Daylight Time 
Total Transcript Time: 29 Minute 55 Second.
