Auto-Transcript Start Time:  10:15:09, 21 May 2024 GMT Daylight Time 
Current Directory: "C:\Users\kebl7595\Desktop\CFD\Runs\Viscous\coarse"

              Welcome to ANSYS Fluent 2023 R1

              Copyright 1987-2023 ANSYS, Inc. All Rights Reserved.
              Unauthorized use, distribution or duplication is prohibited.
              This product is subject to U.S. laws governing export and re-export.
              For full Legal Notice, see documentation.

Build Time: Nov 28 2022 09:52:02 EST  Build Id: 10208  
 
Connected License Server List:	1055@ansyslic.eng.ox.ac.uk

*********************************************
Info: Your license enables 4-way parallel execution.
For faster simulations, please start the application with the appropriate parallel options.
*********************************************


     --------------------------------------------------------------
     This is an academic version of ANSYS FLUENT. Usage of this product
     license is limited to the terms and conditions specified in your ANSYS
     license form, additional terms section.
     --------------------------------------------------------------
Host spawning Node 0 on machine "Engs-30669" (win64).

------------------------------------------------------------------------------------
ID    Hostname    Core  O.S.         PID    Vendor                                 
------------------------------------------------------------------------------------
n0    Engs-30669  1/32  Windows-x64  7072   13th Gen Intel(R) Core(TM) i9-13900    
host  Engs-30669        Windows-x64  45596  13th Gen Intel(R) Core(TM) i9-13900    

MPI Option Selected: intel
------------------------------------------------------------------------------------

Cleanup script file is C:\\Users\\kebl7595\\Desktop\\CFD\\Runs\\Viscous\\coarse\\cleanup-fluent-Engs-30669-45596.bat
QA Service Message :
QA Services Agreement Enabled. This application is included in the scope of an ANSYS QA Services Agreement.
Posting ANSYS Product Improvement Program startup data
Done.

Reading journal file C:/Users/kebl7595/Desktop/CFD/Runs/Viscous/coarse/project1.jou...

> /file/set-batch-options no no no 

> 
define/                 parametric-study/       solve/
display/                plot/                   surface/
exit                    preferences/            switch-to-meshing-mode
file/                   print-license-usage     turbo-workflow/
mesh/                   report/                 views/
parallel/               server/

> /file/import/cgns/mesh  "./project1.cgns"Note: Rank = 0: Process affinity not being set (6).

Importing "./project1.cgns"

Opening library "C:\\PROGRA~1\\ANSYSI~1\\v231\\fluent\\fluent23.1.0\\vki\\win64\\devtools4.4.6.dll"... done.

Read    14064 nodes
   10200 hexahedral cells, zone  1
    7490 quadrilateral wall faces, zone  2.
   26594 quadrilateral interior faces, zone  3.
     258 quadrilateral interface faces, zone  4.
       6 quadrilateral wall faces, zone  5.

Building...
     mesh
     materials,
     interface,
     domains,
     zones,
	default_exterior-1
	interface-default_subface
	default_interior-1
	default_subface
	default
     parallel,
The automatic selection for flux type has changed to Rhie-Chow: momentum based.

Done.


> 
adjoint/                parallel/               server/
define/                 parametric-study/       solve/
display/                plot/                   surface/
exit                    preferences/            turbo-workflow/
file/                   print-license-usage     views/
mesh/                   report/

> /define/models/solver/density-based-implicit yes

> 
adjoint/                parallel/               server/
define/                 parametric-study/       solve/
display/                plot/                   surface/
exit                    preferences/            turbo-workflow/
file/                   print-license-usage     views/
mesh/                   report/

> /define/models/energy? yes yes invalid command [yes]
yes

> /define/models/viscous/kw-standard? yes

> 
adjoint/                parallel/               server/
define/                 parametric-study/       solve/
display/                plot/                   surface/
exit                    preferences/            turbo-workflow/
file/                   print-license-usage     views/
mesh/                   report/

> /define/materials/change-create air air air is a fluid
yes 
Density
ideal-gas no data required.

no no no no no no

> 
adjoint/                parallel/               server/
define/                 parametric-study/       solve/
display/                plot/                   surface/
exit                    preferences/            turbo-workflow/
file/                   print-license-usage     views/
mesh/                   report/

> /mesh/modify-zones/sep-face-zone-angle 2 90 yes

 3400 faces in contiguous region 0
 186 faces in contiguous region 1
 300 faces in contiguous region 2
 3400 faces in contiguous region 3
 204 faces in contiguous region 4
 Separates zone 2 into 5 zone(s).
Updating new zone information...
   created new zone default_subface:010 from default_subface
   created new zone default_subface:009 from default_subface
   created new zone default_subface:008 from default_subface
   created new zone default_subface:007 from default_subface
done.

> 
adjoint/                parallel/               server/
define/                 parametric-study/       solve/
display/                plot/                   surface/
exit                    preferences/            turbo-workflow/
file/                   print-license-usage     views/
mesh/                   report/

> /define/boundary-conditions/zone-name  5   te

> /define/boundary-conditions/zone-name  7 wing

> /define/boundary-conditions/zone-name  2 sym1

> /define/boundary-conditions/zone-name  9 sym2

> 
adjoint/                parallel/               server/
define/                 parametric-study/       solve/
display/                plot/                   surface/
exit                    preferences/            turbo-workflow/
file/                   print-license-usage     views/
mesh/                   report/

> /define/boundary-conditions/zone-name  8 far1

> /define/boundary-conditions/zone-name 10 far2

> 
adjoint/                parallel/               server/
define/                 parametric-study/       solve/
display/                plot/                   surface/
exit                    preferences/            turbo-workflow/
file/                   print-license-usage     views/
mesh/                   report/

> /define/boundary-conditions/zone-type  8 pressure-far-field

> /define/boundary-conditions/zone-type 10 pressure-far-field

> /define/boundary-conditions/zone-type  2 symmetry

> /define/boundary-conditions/zone-type  9 symmetry

> 
adjoint/                parallel/               server/
define/                 parametric-study/       solve/
display/                plot/                   surface/
exit                    preferences/            turbo-workflow/
file/                   print-license-usage     views/
mesh/                   report/

> /define/boundary-conditions/pressure-far-field (far2 far1)
far1 no 0 no 0.1 no 300 yes no 0.984808 no 0.173648 no 0. no yes 5 0.02

> /define/boundary-conditions/pressure-far-field (far2 far1)
far2 no 0 no 0.1 no 300 yes no 0.984808 no 0.173648 no 0. no yes 5 0.02

> 
adjoint/                parallel/               server/
define/                 parametric-study/       solve/
display/                plot/                   surface/
exit                    preferences/            turbo-workflow/
file/                   print-license-usage     views/
mesh/                   report/

> /solve/initialize/compute-defaults/pressure-far-field (far2 far1)
far1

> /solve/initialize/initialize-flow

> 
adjoint/                parallel/               server/
define/                 parametric-study/       solve/
display/                plot/                   surface/
exit                    preferences/            turbo-workflow/
file/                   print-license-usage     views/
mesh/                   report/

> /solve/monitors/residual/convergence-criteria 1.e-9 1.e-9 1.e-9 1.e-9 1.e-9 1.e-9 1.e-9

> /solve/iterate 2000

  iter  continuity  x-velocity  y-velocity  z-velocity      energy           k       omega     time/iter
     1  1.0000e+00  1.0000e+00  1.0000e+00  1.0000e+00  1.0000e+00  1.8657e-01  1.3529e-01  0:00:00 1999
     2  4.9151e-01  4.2657e-01  4.4388e-01  1.0000e+00  4.9188e-01  1.3996e-01  1.0782e-01  0:00:00 1998
     3  2.5755e-01  2.0801e-01  2.2143e-01  8.7348e-01  2.5762e-01  1.0911e-01  8.8089e-02  0:00:00 1997
     4  1.5266e-01  1.3513e-01  1.3079e-01  4.4907e-01  1.5261e-01  8.9067e-02  7.3551e-02  0:00:00 1996
     5  1.0774e-01  1.0169e-01  8.6054e-02  6.5318e-01  1.0771e-01  7.5683e-02  6.2921e-02  0:00:00 1995
     6  8.7988e-02  7.6986e-02  5.9641e-02  9.8484e-01  8.8030e-02  6.5345e-02  5.5125e-02  0:00:00 1994
     7  7.8480e-02  6.1005e-02  4.3994e-02  1.0759e+00  7.8578e-02  5.6983e-02  4.8845e-02  0:00:00 1993
     8  7.2641e-02  5.0752e-02  3.4650e-02  1.0347e+00  7.2762e-02  5.0190e-02  4.3634e-02  0:33:12 1992
     9  6.8680e-02  4.4412e-02  2.8569e-02  9.4330e-01  6.8800e-02  4.4650e-02  3.9252e-02  0:26:33 1991
    10  6.6275e-02  4.1273e-02  2.4140e-02  9.0759e-01  6.6382e-02  4.0196e-02  3.5549e-02  0:21:14 1990
    11  6.5161e-02  4.0388e-02  2.1007e-02  8.8173e-01  6.5252e-02  3.6553e-02  3.2391e-02  0:16:58 1989

  iter  continuity  x-velocity  y-velocity  z-velocity      energy           k       omega     time/iter
    12  6.4817e-02  4.0728e-02  1.9086e-02  8.4795e-01  6.4891e-02  3.3501e-02  2.9727e-02  0:13:34 1988
    13  6.4918e-02  4.1734e-02  1.7676e-02  7.9535e-01  6.4973e-02  3.0887e-02  2.7432e-02  0:10:51 1987
    14  6.5286e-02  4.2877e-02  1.7144e-02  7.5996e-01  6.5324e-02  2.8621e-02  2.5424e-02  0:08:41 1986
    15  6.5503e-02  4.3977e-02  1.7233e-02  7.4122e-01  6.5523e-02  2.6669e-02  2.3661e-02  0:06:56 1985
    16  6.5348e-02  4.5041e-02  1.7364e-02  7.3584e-01  6.5351e-02  2.4961e-02  2.2118e-02  0:05:33 1984
    17  6.4661e-02  4.5774e-02  1.7618e-02  7.4336e-01  6.4647e-02  2.3441e-02  2.0750e-02  0:04:26 1983
    18  6.3314e-02  4.6033e-02  1.7998e-02  7.6179e-01  6.3284e-02  2.2088e-02  1.9523e-02  0:03:33 1982
    19  6.1392e-02  4.5980e-02  1.8388e-02  7.8548e-01  6.1346e-02  2.0870e-02  1.8420e-02  0:02:50 1981
    20  5.8987e-02  4.5442e-02  1.8889e-02  8.1277e-01  5.8928e-02  1.9753e-02  1.7428e-02  0:02:16 1980
    21  5.6084e-02  4.4551e-02  1.9067e-02  8.4305e-01  5.6012e-02  1.8714e-02  1.6528e-02  0:01:49 1979
    22  5.2809e-02  4.3597e-02  1.9346e-02  8.6960e-01  5.2726e-02  1.7774e-02  1.5708e-02  0:01:27 1978

  iter  continuity  x-velocity  y-velocity  z-velocity      energy           k       omega     time/iter
    23  4.9021e-02  4.2212e-02  1.7858e-02  8.8719e-01  4.8928e-02  1.6906e-02  1.4952e-02  0:01:10 1977
    24  4.5043e-02  4.0447e-02  1.7813e-02  8.9121e-01  4.4942e-02  1.6117e-02  1.4254e-02  0:00:56 1976
    25  4.0892e-02  3.8702e-02  1.8003e-02  8.8201e-01  4.0783e-02  1.5389e-02  1.3615e-02  0:00:44 1975
    26  3.6765e-02  3.7117e-02  1.8259e-02  8.5372e-01  3.6651e-02  1.4708e-02  1.3022e-02  0:07:10 1974
    27  3.2790e-02  3.5742e-02  1.8568e-02  8.1418e-01  3.2671e-02  1.4061e-02  1.2462e-02  0:05:44 1973
    28  2.8977e-02  3.4263e-02  1.8793e-02  7.6511e-01  2.8854e-02  1.3465e-02  1.1927e-02  0:04:35 1972
    29  2.5522e-02  3.3122e-02  1.9124e-02  7.0533e-01  2.5395e-02  1.2883e-02  1.1413e-02  0:03:40 1971
    30  2.2341e-02  3.2288e-02  1.9562e-02  6.4330e-01  2.2211e-02  1.2323e-02  1.0918e-02  0:02:56 1970
    31  1.9516e-02  3.1595e-02  1.9995e-02  5.8934e-01  1.9385e-02  1.1779e-02  1.0445e-02  0:02:21 1969
    32  1.7151e-02  3.0985e-02  2.0411e-02  5.5730e-01  1.7019e-02  1.1256e-02  9.9885e-03  0:01:52 1968
    33  1.5276e-02  3.0607e-02  2.0741e-02  5.5428e-01  1.5145e-02  1.0747e-02  9.5428e-03  0:01:30 1967

  iter  continuity  x-velocity  y-velocity  z-velocity      energy           k       omega     time/iter
    34  1.3899e-02  3.0420e-02  2.0982e-02  5.8015e-01  1.3772e-02  1.0239e-02  9.1034e-03  0:01:12 1966
    35  1.2946e-02  3.0284e-02  2.1140e-02  6.2518e-01  1.2826e-02  9.7407e-03  8.6682e-03  0:00:57 1965
    36  1.2376e-02  3.0239e-02  2.1219e-02  6.7688e-01  1.2266e-02  9.2607e-03  8.2500e-03  0:00:46 1964
    37  1.2090e-02  3.0390e-02  2.1153e-02  7.3301e-01  1.1991e-02  8.7965e-03  7.8455e-03  0:00:37 1963
    38  1.2006e-02  3.0569e-02  2.1002e-02  7.8649e-01  1.1919e-02  8.3301e-03  7.4607e-03  0:00:29 1962
    39  1.2036e-02  3.0750e-02  2.0732e-02  8.3048e-01  1.1960e-02  7.9135e-03  7.0901e-03  0:00:24 1961
    40  1.2093e-02  3.0894e-02  2.0349e-02  8.5976e-01  1.2029e-02  7.5200e-03  6.7397e-03  0:00:19 1960
    41  1.2151e-02  3.1014e-02  1.9845e-02  8.7317e-01  1.2097e-02  7.1285e-03  6.4159e-03  0:00:15 1959
    42  1.2234e-02  3.1129e-02  1.9236e-02  8.7015e-01  1.2190e-02  6.7634e-03  6.1039e-03  0:00:12 1958
    43  1.2368e-02  3.1214e-02  1.8542e-02  8.4639e-01  1.2333e-02  6.4312e-03  5.8107e-03  0:00:10 1957
    44  1.2432e-02  3.1275e-02  1.7808e-02  8.0191e-01  1.2406e-02  6.1318e-03  5.5381e-03  0:00:08 1956

  iter  continuity  x-velocity  y-velocity  z-velocity      energy           k       omega     time/iter
    45  1.2394e-02  3.1304e-02  1.7055e-02  7.4734e-01  1.2374e-02  5.8659e-03  5.2837e-03  0:00:06 1955
    46  1.2309e-02  3.1258e-02  1.6290e-02  6.8068e-01  1.2296e-02  5.6207e-03  5.0452e-03  0:00:05 1954
    47  1.2113e-02  3.0722e-02  1.5506e-02  6.0722e-01  1.2106e-02  5.4013e-03  4.8244e-03  0:00:04 1953
    48  1.1831e-02  2.9946e-02  1.4740e-02  5.3388e-01  1.1828e-02  5.1908e-03  4.6123e-03  0:00:03 1952
    49  1.1504e-02  2.9283e-02  1.3917e-02  4.6236e-01  1.1505e-02  5.0006e-03  4.4054e-03  0:00:03 1951
    50  1.1149e-02  2.8571e-02  1.3063e-02  3.9832e-01  1.1154e-02  4.8233e-03  4.2116e-03  0:06:32 1950
    51  1.0773e-02  2.7767e-02  1.2210e-02  3.5136e-01  1.0780e-02  4.6639e-03  4.0227e-03  0:05:13 1949
    52  1.0376e-02  2.6878e-02  1.1388e-02  3.2747e-01  1.0384e-02  4.5118e-03  3.8353e-03  0:04:11 1948
    53  9.9462e-03  2.5848e-02  1.0607e-02  3.2837e-01  9.9547e-03  4.3636e-03  3.6579e-03  0:03:20 1947
    54  9.5064e-03  2.4799e-02  9.8825e-03  3.4607e-01  9.5143e-03  4.2187e-03  3.4933e-03  0:02:40 1946
    55  9.0560e-03  2.3798e-02  9.1655e-03  3.7318e-01  9.0627e-03  4.0809e-03  3.3382e-03  0:02:08 1945

  iter  continuity  x-velocity  y-velocity  z-velocity      energy           k       omega     time/iter
    56  8.5858e-03  2.2804e-02  8.4860e-03  4.0162e-01  8.5905e-03  3.9468e-03  3.1883e-03  0:01:42 1944
    57  8.1028e-03  2.1783e-02  7.8706e-03  4.2166e-01  8.1052e-03  3.8213e-03  3.0427e-03  0:01:22 1943
    58  7.6206e-03  2.0694e-02  7.3394e-03  4.3218e-01  7.6201e-03  3.7137e-03  2.9068e-03  0:01:05 1942
    59  7.1774e-03  1.9769e-02  6.8418e-03  4.3783e-01  7.1737e-03  3.6112e-03  2.7954e-03  0:00:52 1941
    60  6.8025e-03  1.9014e-02  6.4100e-03  4.3933e-01  6.7955e-03  3.5129e-03  2.6920e-03  0:00:42 1940
    61  6.5297e-03  1.8442e-02  6.0620e-03  4.3712e-01  6.5192e-03  3.4220e-03  2.5982e-03  0:00:33 1939
    62  6.3915e-03  1.8046e-02  5.7979e-03  4.3305e-01  6.3776e-03  3.3389e-03  2.5090e-03  0:00:27 1938
    63  6.4080e-03  1.7790e-02  5.6034e-03  4.3141e-01  6.3911e-03  3.2630e-03  2.4280e-03  0:00:21 1937
    64  6.5839e-03  1.7648e-02  5.4665e-03  4.3298e-01  6.5644e-03  3.2031e-03  2.3648e-03  0:00:17 1936
    65  6.9093e-03  1.7596e-02  5.3854e-03  4.4490e-01  6.8875e-03  3.1549e-03  2.2999e-03  0:00:14 1935
    66  7.3439e-03  1.7604e-02  5.3392e-03  4.6599e-01  7.3200e-03  3.1146e-03  2.2394e-03  0:00:11 1934

  iter  continuity  x-velocity  y-velocity  z-velocity      energy           k       omega     time/iter
    67  7.8607e-03  1.7716e-02  5.3402e-03  4.9412e-01  7.8348e-03  3.0872e-03  2.1891e-03  0:00:09 1933
    68  8.4420e-03  1.7855e-02  5.3196e-03  5.2551e-01  8.4136e-03  3.0739e-03  2.1440e-03  0:00:07 1932
    69  9.0368e-03  1.7957e-02  5.3228e-03  5.5633e-01  9.0056e-03  3.0680e-03  2.0968e-03  0:00:06 1931
    70  9.6074e-03  1.8026e-02  5.3469e-03  5.8542e-01  9.5729e-03  3.0719e-03  2.0543e-03  0:00:04 1930
    71  1.0137e-02  1.8053e-02  5.3822e-03  6.0996e-01  1.0098e-02  3.0777e-03  2.0171e-03  0:00:04 1929
    72  1.0612e-02  1.8022e-02  5.4416e-03  6.2448e-01  1.0569e-02  3.0915e-03  1.9748e-03  0:06:28 1928
    73  1.1023e-02  1.7927e-02  5.5390e-03  6.2589e-01  1.0976e-02  3.1181e-03  1.9359e-03  0:05:11 1927
    74  1.1363e-02  1.7763e-02  5.6731e-03  6.1315e-01  1.1312e-02  3.1469e-03  1.8993e-03  0:04:08 1926
    75  1.1619e-02  1.7503e-02  5.8502e-03  5.8655e-01  1.1562e-02  3.1730e-03  1.8689e-03  0:03:19 1925
    76  1.1803e-02  1.7234e-02  6.1748e-03  5.4803e-01  1.1742e-02  3.1986e-03  1.8442e-03  0:02:39 1924
    77  1.1926e-02  1.6921e-02  6.8187e-03  4.9965e-01  1.1859e-02  3.2244e-03  1.8131e-03  0:02:07 1923

  iter  continuity  x-velocity  y-velocity  z-velocity      energy           k       omega     time/iter
    78  1.1984e-02  1.6578e-02  7.4604e-03  4.4509e-01  1.1912e-02  3.2518e-03  1.7793e-03  0:01:42 1922
    79  1.1973e-02  1.6220e-02  8.0692e-03  3.8579e-01  1.1896e-02  3.2805e-03  1.7450e-03  0:01:21 1921
    80  1.1902e-02  1.5855e-02  8.6300e-03  3.2722e-01  1.1820e-02  3.3134e-03  1.7173e-03  0:01:05 1920
    81  1.1770e-02  1.5484e-02  9.1352e-03  2.7868e-01  1.1684e-02  3.3384e-03  1.6976e-03  0:00:52 1919
    82  1.1577e-02  1.5120e-02  9.5812e-03  2.5300e-01  1.1487e-02  3.3620e-03  1.6779e-03  0:00:41 1918
    83  1.1325e-02  1.4792e-02  9.9679e-03  2.6188e-01  1.1230e-02  3.3867e-03  1.6636e-03  0:00:33 1917
    84  1.1027e-02  1.4503e-02  1.0292e-02  3.0451e-01  1.0929e-02  3.4081e-03  1.6477e-03  0:00:27 1916
    85  1.0688e-02  1.4252e-02  1.0552e-02  3.6826e-01  1.0587e-02  3.4245e-03  1.6308e-03  0:00:21 1915
    86  1.0321e-02  1.4096e-02  1.0764e-02  4.4048e-01  1.0218e-02  3.4339e-03  1.6063e-03  0:00:17 1914
    87  9.9268e-03  1.4016e-02  1.0920e-02  5.1290e-01  9.8222e-03  3.4319e-03  1.5787e-03  0:00:14 1913
    88  9.5063e-03  1.4008e-02  1.1023e-02  5.8225e-01  9.4009e-03  3.4204e-03  1.5537e-03  0:00:11 1912

  iter  continuity  x-velocity  y-velocity  z-velocity      energy           k       omega     time/iter
    89  9.0740e-03  1.4073e-02  1.1078e-02  6.4585e-01  8.9686e-03  3.4221e-03  1.5273e-03  0:00:09 1911
    90  8.6356e-03  1.4203e-02  1.1088e-02  6.9922e-01  8.5310e-03  3.4170e-03  1.5001e-03  0:00:07 1910
    91  8.1956e-03  1.4383e-02  1.1055e-02  7.4254e-01  8.0926e-03  3.4016e-03  1.4692e-03  0:00:06 1909
    92  7.7552e-03  1.4558e-02  1.0978e-02  7.7417e-01  7.6545e-03  3.3792e-03  1.4365e-03  0:00:04 1908
    93  7.3054e-03  1.4393e-02  1.0804e-02  7.9395e-01  7.2077e-03  3.3670e-03  1.4063e-03  0:00:04 1907
    94  6.8345e-03  1.4410e-02  1.0637e-02  8.0062e-01  6.7405e-03  3.3501e-03  1.3702e-03  0:06:24 1906
    95  6.3667e-03  1.4471e-02  1.0436e-02  7.9410e-01  6.2772e-03  3.3283e-03  1.3370e-03  0:05:07 1905
    96  5.9137e-03  1.4532e-02  1.0191e-02  7.7502e-01  5.8294e-03  3.3065e-03  1.3141e-03  0:04:06 1904
    97  5.4774e-03  1.4579e-02  9.9079e-03  7.4456e-01  5.3989e-03  3.2909e-03  1.2898e-03  0:03:16 1903
    98  5.0589e-03  1.4598e-02  9.5926e-03  7.0442e-01  4.9868e-03  3.2803e-03  1.2703e-03  0:02:37 1902
    99  4.6641e-03  1.4593e-02  9.2503e-03  6.5506e-01  4.5990e-03  3.2703e-03  1.2507e-03  0:02:06 1901

  iter  continuity  x-velocity  y-velocity  z-velocity      energy           k       omega     time/iter
   100  4.2965e-03  1.4556e-02  8.8847e-03  5.9818e-01  4.2388e-03  3.2552e-03  1.2310e-03  0:01:40 1900
   101  3.9631e-03  1.4487e-02  8.4987e-03  5.3423e-01  3.9133e-03  3.2387e-03  1.2079e-03  0:01:20 1899
   102  3.6677e-03  1.4380e-02  8.0947e-03  4.6503e-01  3.6260e-03  3.2176e-03  1.1866e-03  0:01:04 1898
   103  3.4117e-03  1.4234e-02  7.6759e-03  3.9293e-01  3.3783e-03  3.1946e-03  1.1717e-03  0:00:51 1897
   104  3.1890e-03  1.4101e-02  7.2045e-03  3.2103e-01  3.1638e-03  3.1767e-03  1.1568e-03  0:00:41 1896
   105  3.0097e-03  1.3858e-02  6.7799e-03  2.5115e-01  2.9921e-03  3.1510e-03  1.1372e-03  0:00:33 1895
   106  2.8722e-03  1.3534e-02  6.3746e-03  1.8866e-01  2.8613e-03  3.1240e-03  1.1165e-03  0:00:26 1894
   107  2.7684e-03  1.3177e-02  5.9621e-03  1.4678e-01  2.7629e-03  3.0943e-03  1.0992e-03  0:00:21 1893
   108  2.6854e-03  1.2874e-02  5.4908e-03  1.4056e-01  2.6841e-03  3.0576e-03  1.0813e-03  0:00:17 1892
   109  2.6197e-03  1.2524e-02  5.0495e-03  1.7058e-01  2.6215e-03  3.0143e-03  1.0682e-03  0:00:13 1891
   110  2.5677e-03  1.2138e-02  4.6331e-03  2.1969e-01  2.5714e-03  2.9673e-03  1.0524e-03  0:00:11 1890

  iter  continuity  x-velocity  y-velocity  z-velocity      energy           k       omega     time/iter
   111  2.5192e-03  1.1732e-02  4.2390e-03  2.7380e-01  2.5238e-03  2.9165e-03  1.0349e-03  0:00:09 1889
   112  2.4757e-03  1.1320e-02  3.8706e-03  3.2677e-01  2.4804e-03  2.8577e-03  1.0237e-03  0:00:07 1888
   113  2.4430e-03  1.0904e-02  3.5333e-03  3.7580e-01  2.4470e-03  2.7941e-03  1.0042e-03  0:00:05 1887
   114  2.4052e-03  1.0490e-02  3.2355e-03  4.2026e-01  2.4081e-03  2.7266e-03  9.8328e-04  0:00:04 1886
   115  2.3616e-03  1.0084e-02  2.9835e-03  4.5937e-01  2.3629e-03  2.6589e-03  9.6504e-04  0:06:21 1885
   116  2.3130e-03  9.6959e-03  2.7823e-03  4.9182e-01  2.3127e-03  2.5892e-03  9.4612e-04  0:05:04 1884
   117  2.2603e-03  9.3311e-03  2.6343e-03  5.1843e-01  2.2583e-03  2.5165e-03  9.2559e-04  0:04:03 1883
   118  2.2053e-03  8.9952e-03  2.5378e-03  5.3962e-01  2.2015e-03  2.4477e-03  9.1024e-04  0:03:15 1882
   119  2.1521e-03  8.6916e-03  2.4872e-03  5.5560e-01  2.1467e-03  2.3763e-03  8.9431e-04  0:02:36 1881
   120  2.1004e-03  8.4194e-03  2.4728e-03  5.6565e-01  2.0935e-03  2.3084e-03  8.7517e-04  0:02:04 1880
   121  2.0554e-03  8.1807e-03  2.4863e-03  5.6959e-01  2.0471e-03  2.2419e-03  8.5870e-04  0:01:39 1879

  iter  continuity  x-velocity  y-velocity  z-velocity      energy           k       omega     time/iter
   122  2.0161e-03  7.9737e-03  2.5185e-03  5.6902e-01  2.0067e-03  2.1762e-03  8.4028e-04  0:01:20 1878
   123  1.9839e-03  7.7973e-03  2.5598e-03  5.6293e-01  1.9737e-03  2.1132e-03  8.2596e-04  0:01:04 1877
   124  1.9585e-03  7.6488e-03  2.6033e-03  5.5315e-01  1.9476e-03  2.0537e-03  8.1060e-04  0:00:51 1876
   125  1.9407e-03  7.5186e-03  2.6440e-03  5.3921e-01  1.9295e-03  1.9967e-03  7.9719e-04  0:00:41 1875
   126  1.9231e-03  7.3789e-03  2.6862e-03  5.2242e-01  1.9116e-03  1.9473e-03  7.8463e-04  0:00:32 1874
   127  1.9105e-03  7.2995e-03  2.7136e-03  5.0231e-01  1.8990e-03  1.9000e-03  7.7340e-04  0:00:26 1873
   128  1.8987e-03  7.2504e-03  2.7302e-03  4.7887e-01  1.8872e-03  1.8550e-03  7.6582e-04  0:00:21 1872
   129  1.8850e-03  7.2139e-03  2.7362e-03  4.5201e-01  1.8736e-03  1.8103e-03  7.6065e-04  0:00:17 1871
   130  1.8683e-03  7.1808e-03  2.7319e-03  4.2039e-01  1.8570e-03  1.7639e-03  7.5695e-04  0:00:13 1870
   131  1.8445e-03  7.1451e-03  2.7175e-03  3.8539e-01  1.8334e-03  1.7178e-03  7.5215e-04  0:00:11 1869
   132  1.8150e-03  7.1015e-03  2.6933e-03  3.4875e-01  1.8040e-03  1.6711e-03  7.4498e-04  0:00:08 1868

  iter  continuity  x-velocity  y-velocity  z-velocity      energy           k       omega     time/iter
   133  1.7797e-03  7.0486e-03  2.6601e-03  3.1132e-01  1.7689e-03  1.6241e-03  7.3546e-04  0:00:07 1867
   134  1.7398e-03  6.9871e-03  2.6181e-03  2.7174e-01  1.7292e-03  1.5775e-03  7.2580e-04  0:00:05 1866
   135  1.6922e-03  6.9172e-03  2.5694e-03  2.3184e-01  1.6817e-03  1.5305e-03  7.1643e-04  0:00:04 1865
   136  1.6384e-03  6.8742e-03  2.5281e-03  1.9282e-01  1.6282e-03  1.4864e-03  7.0434e-04  0:06:16 1864
   137  1.6007e-03  6.8288e-03  2.4647e-03  1.5684e-01  1.5907e-03  1.4471e-03  6.9400e-04  0:05:01 1863
   138  1.5657e-03  6.7612e-03  2.3948e-03  1.2568e-01  1.5561e-03  1.4101e-03  6.8048e-04  0:04:01 1862
   139  1.5332e-03  6.6825e-03  2.3223e-03  1.0133e-01  1.5239e-03  1.3764e-03  6.6813e-04  0:03:12 1861
   140  1.5050e-03  6.6049e-03  2.2476e-03  8.7618e-02  1.4961e-03  1.3489e-03  6.5291e-04  0:02:34 1860
   141  1.4830e-03  6.5357e-03  2.1712e-03  8.7230e-02  1.4745e-03  1.3279e-03  6.3822e-04  0:02:03 1859
   142  1.4669e-03  6.4767e-03  2.0933e-03  9.8151e-02  1.4589e-03  1.3080e-03  6.2719e-04  0:01:38 1858
   143  1.4559e-03  6.4287e-03  2.0143e-03  1.1475e-01  1.4486e-03  1.2900e-03  6.1220e-04  0:01:19 1857

  iter  continuity  x-velocity  y-velocity  z-velocity      energy           k       omega     time/iter
   144  1.4493e-03  6.3911e-03  1.9343e-03  1.3309e-01  1.4426e-03  1.2779e-03  5.9510e-04  0:01:03 1856
   145  1.4456e-03  6.3625e-03  1.8534e-03  1.5148e-01  1.4396e-03  1.2704e-03  5.7910e-04  0:00:50 1855
   146  1.4434e-03  6.3411e-03  1.7717e-03  1.6875e-01  1.4382e-03  1.2647e-03  5.6765e-04  0:00:40 1854
   147  1.4417e-03  6.3249e-03  1.6890e-03  1.8414e-01  1.4372e-03  1.2554e-03  5.4990e-04  0:00:32 1853
   148  1.4394e-03  6.3119e-03  1.6055e-03  1.9749e-01  1.4357e-03  1.2456e-03  5.3583e-04  0:00:26 1852
   149  1.4351e-03  6.2998e-03  1.5213e-03  2.0902e-01  1.4322e-03  1.2358e-03  5.2116e-04  0:00:21 1851
   150  1.4279e-03  6.2871e-03  1.4369e-03  2.1841e-01  1.4257e-03  1.2279e-03  5.0573e-04  0:00:16 1850
   151  1.4174e-03  6.2721e-03  1.3524e-03  2.2528e-01  1.4159e-03  1.2186e-03  4.9121e-04  0:00:13 1849
   152  1.4028e-03  6.2536e-03  1.2687e-03  2.3072e-01  1.4019e-03  1.2102e-03  4.7852e-04  0:00:11 1848
   153  1.3845e-03  6.2304e-03  1.1861e-03  2.3346e-01  1.3843e-03  1.2006e-03  4.6709e-04  0:00:08 1847
   154  1.3629e-03  6.2012e-03  1.1054e-03  2.3705e-01  1.3632e-03  1.1911e-03  4.5550e-04  0:00:07 1846

  iter  continuity  x-velocity  y-velocity  z-velocity      energy           k       omega     time/iter
   155  1.3385e-03  6.1656e-03  1.0274e-03  2.3978e-01  1.3393e-03  1.1823e-03  4.4400e-04  0:00:05 1845
   156  1.3121e-03  6.1228e-03  9.5283e-04  2.3961e-01  1.3132e-03  1.1766e-03  4.3086e-04  0:06:13 1844
   157  1.2842e-03  6.0726e-03  8.8236e-04  2.3687e-01  1.2857e-03  1.1716e-03  4.1956e-04  0:04:58 1843
   158  1.2557e-03  6.0145e-03  8.1623e-04  2.3127e-01  1.2574e-03  1.1677e-03  4.1014e-04  0:03:59 1842
   159  1.2269e-03  5.9484e-03  7.5501e-04  2.2398e-01  1.2287e-03  1.1639e-03  4.0127e-04  0:03:11 1841
   160  1.1984e-03  5.8746e-03  6.9915e-04  2.1490e-01  1.2003e-03  1.1605e-03  3.9283e-04  0:02:32 1840
   161  1.1707e-03  5.7933e-03  6.4871e-04  2.0509e-01  1.1726e-03  1.1567e-03  3.8342e-04  0:02:02 1839
   162  1.1443e-03  5.7048e-03  6.0337e-04  1.9458e-01  1.1459e-03  1.1532e-03  3.7384e-04  0:01:37 1838
   163  1.1194e-03  5.6103e-03  5.6274e-04  1.8228e-01  1.1209e-03  1.1518e-03  3.6374e-04  0:01:18 1837
   164  1.0965e-03  5.5103e-03  5.2608e-04  1.6867e-01  1.0977e-03  1.1522e-03  3.5331e-04  0:01:02 1836
   165  1.0757e-03  5.4060e-03  4.9265e-04  1.5454e-01  1.0766e-03  1.1486e-03  3.4462e-04  0:00:50 1835

  iter  continuity  x-velocity  y-velocity  z-velocity      energy           k       omega     time/iter
   166  1.0568e-03  5.2981e-03  4.6163e-04  1.4060e-01  1.0574e-03  1.1442e-03  3.3783e-04  0:00:40 1834
   167  1.0397e-03  5.1874e-03  4.3270e-04  1.2764e-01  1.0398e-03  1.1390e-03  3.3294e-04  0:00:32 1833
   168  1.0243e-03  5.0748e-03  4.0574e-04  1.1580e-01  1.0240e-03  1.1318e-03  3.2878e-04  0:00:25 1832
   169  1.0102e-03  4.9613e-03  3.8074e-04  1.0495e-01  1.0096e-03  1.1230e-03  3.2643e-04  0:00:20 1831
   170  9.9755e-04  4.8482e-03  3.5813e-04  9.5335e-02  9.9645e-04  1.1163e-03  3.2382e-04  0:00:16 1830
   171  9.8610e-04  4.7364e-03  3.3859e-04  8.7220e-02  9.8459e-04  1.1072e-03  3.2209e-04  0:00:13 1829
   172  9.7579e-04  4.6267e-03  3.2329e-04  8.0877e-02  9.7387e-04  1.0935e-03  3.2121e-04  0:00:10 1828
   173  9.6663e-04  4.5194e-03  3.1356e-04  7.5964e-02  9.6432e-04  1.0769e-03  3.1895e-04  0:00:08 1827
   174  9.5843e-04  4.4150e-03  3.1077e-04  7.2707e-02  9.5574e-04  1.0590e-03  3.1722e-04  0:00:07 1826
   175  9.5092e-04  4.3141e-03  3.1593e-04  7.0983e-02  9.4786e-04  1.0406e-03  3.1680e-04  0:00:05 1825
   176  9.4350e-04  4.2172e-03  3.2909e-04  7.0388e-02  9.4008e-04  1.0236e-03  3.1551e-04  0:00:04 1824

  iter  continuity  x-velocity  y-velocity  z-velocity      energy           k       omega     time/iter
   177  9.3606e-04  4.1243e-03  3.4908e-04  7.0329e-02  9.3232e-04  1.0088e-03  3.1454e-04  0:06:08 1823
   178  9.2782e-04  4.0361e-03  3.7501e-04  7.0582e-02  9.2378e-04  9.9327e-04  3.1251e-04  0:04:54 1822
   179  9.1892e-04  3.9523e-03  4.0539e-04  7.0837e-02  9.1460e-04  9.8075e-04  3.1163e-04  0:03:55 1821
   180  9.0916e-04  3.8732e-03  4.3813e-04  7.0879e-02  9.0461e-04  9.7232e-04  3.1147e-04  0:03:08 1820
   181  8.9832e-04  3.7988e-03  4.7165e-04  7.0451e-02  8.9357e-04  9.6367e-04  3.0912e-04  0:02:30 1819
   182  8.8620e-04  3.7292e-03  5.0451e-04  6.9423e-02  8.8131e-04  9.5634e-04  3.0460e-04  0:02:00 1818
   183  8.7261e-04  3.6638e-03  5.3549e-04  6.7797e-02  8.6762e-04  9.5007e-04  3.0180e-04  0:01:36 1817
   184  8.5716e-04  3.6025e-03  5.6364e-04  6.5519e-02  8.5215e-04  9.4527e-04  3.0028e-04  0:01:17 1816
   185  8.3957e-04  3.5463e-03  5.8827e-04  6.2614e-02  8.3458e-04  9.4163e-04  2.9734e-04  0:01:01 1815
   186  8.1954e-04  3.4957e-03  6.0879e-04  5.9160e-02  8.1465e-04  9.3750e-04  2.9451e-04  0:00:49 1814
   187  7.9644e-04  3.4507e-03  6.2489e-04  5.5177e-02  7.9172e-04  9.3210e-04  2.9325e-04  0:00:39 1813

  iter  continuity  x-velocity  y-velocity  z-velocity      energy           k       omega     time/iter
   188  7.7073e-04  3.4122e-03  6.3607e-04  5.0739e-02  7.6625e-04  9.2514e-04  2.9096e-04  0:00:31 1812
   189  7.4243e-04  3.3798e-03  6.4263e-04  4.5966e-02  7.3828e-04  9.2004e-04  2.8851e-04  0:00:25 1811
   190  7.1151e-04  3.3534e-03  6.4492e-04  4.1090e-02  7.0776e-04  9.1368e-04  2.8567e-04  0:00:20 1810
   191  6.7904e-04  3.3330e-03  6.4300e-04  3.6333e-02  6.7577e-04  9.0732e-04  2.8366e-04  0:00:16 1809
   192  6.4509e-04  3.3181e-03  6.3715e-04  3.2038e-02  6.4237e-04  9.0142e-04  2.8236e-04  0:00:13 1808
   193  6.1033e-04  3.3088e-03  6.2834e-04  2.8721e-02  6.0824e-04  8.9644e-04  2.7914e-04  0:00:10 1807
   194  5.7591e-04  3.3045e-03  6.1792e-04  2.6971e-02  5.7450e-04  8.9175e-04  2.7522e-04  0:00:08 1806
   195  5.4302e-04  3.3047e-03  6.0629e-04  2.7203e-02  5.4234e-04  8.8843e-04  2.7204e-04  0:00:07 1805
   196  5.1349e-04  3.3082e-03  5.9471e-04  2.9316e-02  5.1353e-04  8.8721e-04  2.6911e-04  0:00:05 1804
   197  4.8924e-04  3.3144e-03  5.8511e-04  3.2761e-02  4.8993e-04  8.8658e-04  2.6683e-04  0:00:04 1803
   198  4.7231e-04  3.3232e-03  5.7969e-04  3.6950e-02  4.7353e-04  8.8703e-04  2.6564e-04  0:00:03 1802

  iter  continuity  x-velocity  y-velocity  z-velocity      energy           k       omega     time/iter
   199  4.6407e-04  3.3333e-03  5.7948e-04  4.1576e-02  4.6562e-04  8.8962e-04  2.6431e-04  0:06:03 1801
   200  4.6509e-04  3.3436e-03  5.8565e-04  4.6353e-02  4.6673e-04  8.9226e-04  2.6376e-04  0:04:50 1800
   201  4.7623e-04  3.3537e-03  5.9843e-04  5.1044e-02  4.7769e-04  8.9689e-04  2.6477e-04  0:03:52 1799
   202  4.9620e-04  3.3622e-03  6.1724e-04  5.5418e-02  4.9723e-04  9.0254e-04  2.6545e-04  0:03:05 1798
   203  5.2258e-04  3.3684e-03  6.4170e-04  5.9481e-02  5.2301e-04  9.0819e-04  2.6589e-04  0:02:28 1797
   204  5.5508e-04  3.3731e-03  6.7158e-04  6.3119e-02  5.5478e-04  9.1456e-04  2.6615e-04  0:01:59 1796
   205  5.9192e-04  3.3755e-03  7.0544e-04  6.6315e-02  5.9084e-04  9.2181e-04  2.6662e-04  0:01:35 1795
   206  6.3077e-04  3.3748e-03  7.4192e-04  6.9008e-02  6.2886e-04  9.2945e-04  2.6765e-04  0:01:16 1794
   207  6.7011e-04  3.3704e-03  7.8027e-04  7.1185e-02  6.6736e-04  9.3557e-04  2.6803e-04  0:01:01 1793
   208  7.0903e-04  3.3625e-03  8.1941e-04  7.2854e-02  7.0549e-04  9.4041e-04  2.6762e-04  0:00:48 1792
   209  7.4646e-04  3.3513e-03  8.5804e-04  7.4029e-02  7.4217e-04  9.4527e-04  2.6712e-04  0:00:39 1791

  iter  continuity  x-velocity  y-velocity  z-velocity      energy           k       omega     time/iter
   210  7.8103e-04  3.3371e-03  8.9509e-04  7.4685e-02  7.7605e-04  9.5048e-04  2.6654e-04  0:00:31 1790
   211  8.1296e-04  3.3197e-03  9.2971e-04  7.4858e-02  8.0736e-04  9.5595e-04  2.6669e-04  0:00:25 1789
   212  8.4188e-04  3.2995e-03  9.6115e-04  7.4583e-02  8.3573e-04  9.6089e-04  2.6731e-04  0:00:20 1788
   213  8.6777e-04  3.2770e-03  9.8896e-04  7.3879e-02  8.6116e-04  9.6505e-04  2.6770e-04  0:00:16 1787
   214  8.8948e-04  3.2526e-03  1.0127e-03  7.2740e-02  8.8250e-04  9.6972e-04  2.6740e-04  0:00:13 1786
   215  9.0697e-04  3.2265e-03  1.0318e-03  7.1268e-02  8.9971e-04  9.7516e-04  2.6656e-04  0:00:10 1785
   216  9.2075e-04  3.1990e-03  1.0461e-03  6.9280e-02  9.1330e-04  9.7872e-04  2.6500e-04  0:00:08 1784
   217  9.3029e-04  3.1705e-03  1.0558e-03  6.6906e-02  9.2274e-04  9.8291e-04  2.6391e-04  0:00:06 1783
   218  9.3590e-04  3.1423e-03  1.0609e-03  6.4281e-02  9.2835e-04  9.8713e-04  2.6407e-04  0:06:02 1782
   219  9.3822e-04  3.1149e-03  1.0611e-03  6.1446e-02  9.3077e-04  9.9006e-04  2.6457e-04  0:04:49 1781
   220  9.3814e-04  3.0889e-03  1.0565e-03  5.8434e-02  9.3087e-04  9.9233e-04  2.6343e-04  0:03:51 1780

  iter  continuity  x-velocity  y-velocity  z-velocity      energy           k       omega     time/iter
   221  9.3593e-04  3.0639e-03  1.0473e-03  5.5248e-02  9.2895e-04  9.9364e-04  2.6173e-04  0:03:05 1779
   222  9.3193e-04  3.0400e-03  1.0337e-03  5.1895e-02  9.2530e-04  9.9393e-04  2.6038e-04  0:02:28 1778
   223  9.2663e-04  3.0174e-03  1.0161e-03  4.8455e-02  9.2045e-04  9.9375e-04  2.5960e-04  0:01:58 1777
   224  9.2086e-04  2.9958e-03  9.9484e-04  4.5004e-02  9.1519e-04  9.9350e-04  2.5906e-04  0:01:34 1776
   225  9.1563e-04  2.9750e-03  9.6997e-04  4.1572e-02  9.1053e-04  9.8743e-04  2.5890e-04  0:01:16 1775
   226  9.1045e-04  2.9541e-03  9.4196e-04  3.8209e-02  9.0594e-04  9.8241e-04  2.5811e-04  0:01:00 1774
   227  9.0445e-04  2.9228e-03  9.0974e-04  3.4982e-02  9.0057e-04  9.7871e-04  2.5623e-04  0:00:48 1773
   228  9.0219e-04  2.8989e-03  8.7624e-04  3.1904e-02  8.9895e-04  9.7430e-04  2.5476e-04  0:06:33 1772
   229  9.0031e-04  2.8787e-03  8.4131e-04  2.9019e-02  8.9768e-04  9.7016e-04  2.5337e-04  0:05:14 1771
   230  8.9879e-04  2.8590e-03  8.0645e-04  2.6304e-02  8.9673e-04  9.6607e-04  2.5232e-04  0:04:11 1770
   231  8.9866e-04  2.8384e-03  7.7167e-04  2.3841e-02  8.9712e-04  9.6156e-04  2.5110e-04  0:03:21 1769

  iter  continuity  x-velocity  y-velocity  z-velocity      energy           k       omega     time/iter
   232  8.9914e-04  2.8159e-03  7.3712e-04  2.1646e-02  8.9807e-04  9.5675e-04  2.4932e-04  0:02:41 1768
   233  9.0025e-04  2.7914e-03  7.0334e-04  1.9743e-02  8.9958e-04  9.5265e-04  2.4755e-04  0:02:08 1767
   234  9.0186e-04  2.7636e-03  6.7083e-04  1.8157e-02  9.0152e-04  9.4727e-04  2.4623e-04  0:01:43 1766
   235  9.0382e-04  2.7340e-03  6.4041e-04  1.6918e-02  9.0374e-04  9.3966e-04  2.4482e-04  0:01:22 1765
   236  9.0519e-04  2.7023e-03  6.1239e-04  1.6079e-02  9.0530e-04  9.3261e-04  2.4294e-04  0:01:06 1764
   237  9.0564e-04  2.6681e-03  5.8710e-04  1.5680e-02  9.0589e-04  9.2564e-04  2.4026e-04  0:00:52 1763
   238  9.0526e-04  2.6313e-03  5.6476e-04  1.5670e-02  9.0560e-04  9.1823e-04  2.3771e-04  0:00:42 1762
   239  9.0291e-04  2.5919e-03  5.4551e-04  1.6023e-02  9.0329e-04  9.1077e-04  2.3650e-04  0:00:34 1761
   240  8.9804e-04  2.5503e-03  5.2907e-04  1.6675e-02  8.9842e-04  9.0319e-04  2.3522e-04  0:00:27 1760
   241  8.9045e-04  2.5069e-03  5.1499e-04  1.7578e-02  8.9082e-04  8.9543e-04  2.3383e-04  0:06:13 1759
   242  8.7992e-04  2.4616e-03  5.0295e-04  1.8670e-02  8.8025e-04  8.8772e-04  2.3253e-04  0:04:58 1758

  iter  continuity  x-velocity  y-velocity  z-velocity      energy           k       omega     time/iter
   243  8.6620e-04  2.4150e-03  4.9215e-04  1.9958e-02  8.6649e-04  8.7992e-04  2.3165e-04  0:03:59 1757
   244  8.4936e-04  2.3674e-03  4.8215e-04  2.1287e-02  8.4960e-04  8.7231e-04  2.3072e-04  0:03:11 1756
   245  8.2963e-04  2.3193e-03  4.7247e-04  2.2401e-02  8.2984e-04  8.6366e-04  2.2975e-04  0:02:33 1755
   246  8.0728e-04  2.2705e-03  4.6276e-04  2.3573e-02  8.0745e-04  8.5516e-04  2.2867e-04  0:02:02 1754
   247  7.8266e-04  2.2220e-03  4.5270e-04  2.4769e-02  7.8280e-04  8.4681e-04  2.2733e-04  0:01:38 1753
   248  7.5594e-04  2.1740e-03  4.4215e-04  2.5952e-02  7.5607e-04  8.3838e-04  2.2580e-04  0:01:18 1752
   249  7.2608e-04  2.1264e-03  4.3339e-04  2.7101e-02  7.2622e-04  8.2900e-04  2.2437e-04  0:01:02 1751
   250  6.9647e-04  2.0870e-03  4.2403e-04  2.8194e-02  6.9663e-04  8.1896e-04  2.2288e-04  0:00:50 1750
   251  6.6676e-04  2.0480e-03  4.1288e-04  2.9109e-02  6.6692e-04  8.0882e-04  2.2013e-04  0:00:40 1749
   252  6.3703e-04  2.0077e-03  4.0341e-04  2.9966e-02  6.3721e-04  7.9837e-04  2.1730e-04  0:00:32 1748
   253  6.0792e-04  1.9674e-03  3.9605e-04  3.0762e-02  6.0809e-04  7.8894e-04  2.1481e-04  0:00:25 1747

  iter  continuity  x-velocity  y-velocity  z-velocity      energy           k       omega     time/iter
   254  5.7836e-04  1.9277e-03  3.9108e-04  3.1479e-02  5.7851e-04  7.7977e-04  2.1224e-04  0:00:20 1746
   255  5.5029e-04  1.8899e-03  3.8925e-04  3.2110e-02  5.5038e-04  7.7082e-04  2.0964e-04  0:06:05 1745
   256  5.2630e-04  1.8539e-03  3.9126e-04  3.2647e-02  5.2629e-04  7.6211e-04  2.0740e-04  0:04:52 1744
   257  5.0667e-04  1.8198e-03  3.9730e-04  3.3087e-02  5.0650e-04  7.5341e-04  2.0516e-04  0:03:54 1743
   258  4.9200e-04  1.7876e-03  4.0759e-04  3.3423e-02  4.9160e-04  7.4461e-04  2.0267e-04  0:03:07 1742
   259  4.8279e-04  1.7568e-03  4.2231e-04  3.3660e-02  4.8211e-04  7.3624e-04  2.0037e-04  0:02:29 1741
   260  4.7924e-04  1.7274e-03  4.4135e-04  3.3786e-02  4.7819e-04  7.2809e-04  1.9736e-04  0:01:59 1740
   261  4.8109e-04  1.6993e-03  4.6422e-04  3.3795e-02  4.7963e-04  7.1939e-04  1.9493e-04  0:01:35 1739
   262  4.8774e-04  1.6725e-03  4.9032e-04  3.3679e-02  4.8582e-04  7.0985e-04  1.9229e-04  0:01:16 1738
   263  4.9840e-04  1.6463e-03  5.1902e-04  3.3431e-02  4.9600e-04  7.0066e-04  1.8965e-04  0:01:01 1737
   264  5.1213e-04  1.6214e-03  5.4965e-04  3.3106e-02  5.0922e-04  6.9191e-04  1.8683e-04  0:00:49 1736

  iter  continuity  x-velocity  y-velocity  z-velocity      energy           k       omega     time/iter
   265  5.2785e-04  1.5975e-03  5.8163e-04  3.2681e-02  5.2445e-04  6.8286e-04  1.8390e-04  0:00:39 1735
   266  5.4479e-04  1.5740e-03  6.1423e-04  3.2150e-02  5.4090e-04  6.7356e-04  1.8134e-04  0:00:31 1734
   267  5.6214e-04  1.5512e-03  6.4675e-04  3.1510e-02  5.5778e-04  6.6426e-04  1.7916e-04  0:00:25 1733
   268  5.7918e-04  1.5290e-03  6.7867e-04  3.0766e-02  5.7437e-04  6.5429e-04  1.7693e-04  0:06:06 1732
   269  5.9536e-04  1.5069e-03  7.0957e-04  2.9923e-02  5.9013e-04  6.4408e-04  1.7467e-04  0:04:53 1731
   270  6.1024e-04  1.4855e-03  7.3891e-04  2.8984e-02  6.0460e-04  6.3427e-04  1.7149e-04  0:03:54 1730
   271  6.2348e-04  1.4646e-03  7.6633e-04  2.7963e-02  6.1747e-04  6.2461e-04  1.6896e-04  0:03:07 1729
   272  6.3483e-04  1.4444e-03  7.9150e-04  2.6867e-02  6.2847e-04  6.1515e-04  1.6640e-04  0:02:30 1728
   273  6.4410e-04  1.4248e-03  8.1422e-04  2.5713e-02  6.3742e-04  6.0571e-04  1.6342e-04  0:02:00 1727
   274  6.5118e-04  1.4058e-03  8.3433e-04  2.4537e-02  6.4421e-04  5.9577e-04  1.6009e-04  0:01:36 1726
   275  6.5604e-04  1.3875e-03  8.5173e-04  2.3359e-02  6.4880e-04  5.8566e-04  1.5662e-04  0:01:17 1725

  iter  continuity  x-velocity  y-velocity  z-velocity      energy           k       omega     time/iter
   276  6.5869e-04  1.3699e-03  8.6638e-04  2.2178e-02  6.5121e-04  5.7554e-04  1.5341e-04  0:01:01 1724
   277  6.5916e-04  1.3529e-03  8.7826e-04  2.1007e-02  6.5148e-04  5.6480e-04  1.5067e-04  0:00:49 1723
   278  6.5753e-04  1.3361e-03  8.8740e-04  1.9817e-02  6.4966e-04  5.5395e-04  1.4800e-04  0:00:39 1722
   279  6.5390e-04  1.3201e-03  8.9383e-04  1.8626e-02  6.4589e-04  5.4272e-04  1.4479e-04  0:00:31 1721
   280  6.4843e-04  1.3047e-03  8.9761e-04  1.7495e-02  6.4030e-04  5.3076e-04  1.4143e-04  0:00:25 1720
   281  6.4013e-04  1.2782e-03  8.9768e-04  1.6455e-02  6.3191e-04  5.1779e-04  1.3848e-04  0:06:04 1719
   282  6.3113e-04  1.2512e-03  8.9585e-04  1.5527e-02  6.2285e-04  5.0482e-04  1.3556e-04  0:04:51 1718
   283  6.2148e-04  1.2331e-03  8.9128e-04  1.4727e-02  6.1317e-04  4.9194e-04  1.3259e-04  0:03:53 1717
   284  6.1041e-04  1.2174e-03  8.8478e-04  1.4063e-02  6.0210e-04  4.7907e-04  1.2966e-04  0:03:06 1716
   285  5.9825e-04  1.2029e-03  8.7638e-04  1.3522e-02  5.8995e-04  4.6587e-04  1.2661e-04  0:02:29 1715
   286  5.8552e-04  1.1885e-03  8.6615e-04  1.3085e-02  5.7726e-04  4.5234e-04  1.2355e-04  0:01:59 1714

  iter  continuity  x-velocity  y-velocity  z-velocity      energy           k       omega     time/iter
   287  5.7236e-04  1.1741e-03  8.5404e-04  1.2732e-02  5.6415e-04  4.3899e-04  1.2030e-04  0:01:35 1713
   288  5.5900e-04  1.1592e-03  8.4033e-04  1.2437e-02  5.5086e-04  4.2587e-04  1.1665e-04  0:01:16 1712
   289  5.4567e-04  1.1438e-03  8.2531e-04  1.2184e-02  5.3761e-04  4.1273e-04  1.1304e-04  0:01:01 1711
   290  5.3258e-04  1.1279e-03  8.0931e-04  1.1952e-02  5.2461e-04  3.9943e-04  1.0934e-04  0:00:49 1710
   291  5.1993e-04  1.1114e-03  7.9260e-04  1.1727e-02  5.1206e-04  3.8635e-04  1.0576e-04  0:00:39 1709
   292  5.0784e-04  1.0942e-03  7.7540e-04  1.1492e-02  5.0007e-04  3.7347e-04  1.0199e-04  0:00:31 1708
   293  4.9638e-04  1.0763e-03  7.5796e-04  1.1230e-02  4.8872e-04  3.6102e-04  9.8321e-05  0:00:25 1707
   294  4.8567e-04  1.0577e-03  7.4050e-04  1.0930e-02  4.7812e-04  3.4840e-04  9.4651e-05  0:06:01 1706
   295  4.7575e-04  1.0384e-03  7.2324e-04  1.0579e-02  4.6830e-04  3.3577e-04  9.1235e-05  0:04:49 1705
   296  4.6663e-04  1.0184e-03  7.0636e-04  1.0172e-02  4.5929e-04  3.2332e-04  8.8008e-05  0:03:51 1704
   297  4.5839e-04  9.9781e-04  6.9004e-04  9.7049e-03  4.5114e-04  3.1151e-04  8.4948e-05  0:03:05 1703

  iter  continuity  x-velocity  y-velocity  z-velocity      energy           k       omega     time/iter
   298  4.5104e-04  9.7677e-04  6.7447e-04  9.1831e-03  4.4388e-04  3.0009e-04  8.2066e-05  0:02:28 1702
   299  4.4459e-04  9.5542e-04  6.5980e-04  8.6162e-03  4.3751e-04  2.8904e-04  7.9005e-05  0:01:58 1701
   300  4.3905e-04  9.3391e-04  6.4616e-04  8.0013e-03  4.3203e-04  2.7837e-04  7.6150e-05  0:01:34 1700
   301  4.3441e-04  9.1243e-04  6.3367e-04  7.3615e-03  4.2744e-04  2.6833e-04  7.3742e-05  0:01:15 1699
   302  4.3068e-04  8.9114e-04  6.2243e-04  6.7173e-03  4.2375e-04  2.5900e-04  7.1605e-05  0:01:00 1698
   303  4.2784e-04  8.7023e-04  6.1254e-04  6.1121e-03  4.2094e-04  2.5006e-04  6.9589e-05  0:00:48 1697
   304  4.2590e-04  8.4988e-04  6.0404e-04  5.5932e-03  4.1902e-04  2.4133e-04  6.7881e-05  0:00:39 1696
   305  4.2466e-04  8.3000e-04  5.9701e-04  5.2289e-03  4.1777e-04  2.3311e-04  6.6340e-05  0:00:31 1695
   306  4.2424e-04  8.1133e-04  5.9149e-04  5.0781e-03  4.1734e-04  2.2492e-04  6.4913e-05  0:06:03 1694
   307  4.2467e-04  7.9393e-04  5.8750e-04  5.1798e-03  4.1774e-04  2.1699e-04  6.3552e-05  0:04:51 1693
   308  4.2591e-04  7.7769e-04  5.8501e-04  5.5364e-03  4.1895e-04  2.0976e-04  6.2127e-05  0:03:52 1692

  iter  continuity  x-velocity  y-velocity  z-velocity      energy           k       omega     time/iter
   309  4.2794e-04  7.6272e-04  5.8395e-04  6.0943e-03  4.2094e-04  2.0330e-04  6.0652e-05  0:03:06 1691
   310  4.3068e-04  7.4903e-04  5.8425e-04  6.7902e-03  4.2362e-04  1.9734e-04  5.9227e-05  0:02:29 1690
   311  4.3401e-04  7.3665e-04  5.8582e-04  7.5797e-03  4.2689e-04  1.9165e-04  5.8102e-05  0:01:59 1689
   312  4.3789e-04  7.2562e-04  5.8857e-04  8.4350e-03  4.3070e-04  1.8615e-04  5.7077e-05  0:01:35 1688
   313  4.4224e-04  7.1595e-04  5.9240e-04  9.3227e-03  4.3498e-04  1.8094e-04  5.5943e-05  0:01:16 1687
   314  4.4695e-04  7.0764e-04  5.9718e-04  1.0214e-02  4.3961e-04  1.7646e-04  5.4831e-05  0:01:01 1686
   315  4.5190e-04  7.0065e-04  6.0279e-04  1.1093e-02  4.4449e-04  1.7231e-04  5.3769e-05  0:00:49 1685
   316  4.5698e-04  6.9494e-04  6.0910e-04  1.1947e-02  4.4949e-04  1.6857e-04  5.2914e-05  0:00:39 1684
   317  4.6210e-04  6.9044e-04  6.1595e-04  1.2764e-02  4.5453e-04  1.6497e-04  5.1984e-05  0:00:31 1683
   318  4.6714e-04  6.8708e-04  6.2320e-04  1.3532e-02  4.5949e-04  1.6148e-04  5.1062e-05  0:00:25 1682
   319  4.7201e-04  6.8475e-04  6.3068e-04  1.4240e-02  4.6428e-04  1.5849e-04  5.0293e-05  0:05:56 1681

  iter  continuity  x-velocity  y-velocity  z-velocity      energy           k       omega     time/iter
   320  4.7662e-04  6.8334e-04  6.3824e-04  1.4878e-02  4.6881e-04  1.5584e-04  4.9537e-05  0:04:45 1680
   321  4.8088e-04  6.8275e-04  6.4574e-04  1.5443e-02  4.7299e-04  1.5324e-04  4.8856e-05  0:03:48 1679
   322  4.8469e-04  6.8288e-04  6.5303e-04  1.5930e-02  4.7673e-04  1.5091e-04  4.8280e-05  0:03:02 1678
   323  4.8799e-04  6.8361e-04  6.5999e-04  1.6327e-02  4.7996e-04  1.4873e-04  4.7721e-05  0:02:25 1677
   324  4.9069e-04  6.8484e-04  6.6652e-04  1.6632e-02  4.8259e-04  1.4681e-04  4.7175e-05  0:01:56 1676
   325  4.9273e-04  6.8645e-04  6.7250e-04  1.6845e-02  4.8457e-04  1.4525e-04  4.6719e-05  0:01:33 1675
   326  4.9405e-04  6.8837e-04  6.7785e-04  1.6961e-02  4.8584e-04  1.4368e-04  4.6234e-05  0:01:14 1674
   327  4.9461e-04  6.9049e-04  6.8250e-04  1.6995e-02  4.8636e-04  1.4218e-04  4.5708e-05  0:00:59 1673
   328  4.9437e-04  6.9276e-04  6.8637e-04  1.6946e-02  4.8607e-04  1.4080e-04  4.5269e-05  0:00:48 1672
   329  4.9328e-04  6.9509e-04  6.8942e-04  1.6815e-02  4.8495e-04  1.3941e-04  4.4829e-05  0:00:38 1671
   330  4.9133e-04  6.9742e-04  6.9159e-04  1.6611e-02  4.8298e-04  1.3823e-04  4.4404e-05  0:00:30 1670

  iter  continuity  x-velocity  y-velocity  z-velocity      energy           k       omega     time/iter
   331  4.8852e-04  6.9968e-04  6.9285e-04  1.6337e-02  4.8016e-04  1.3684e-04  4.3962e-05  0:05:58 1669
   332  4.8483e-04  7.0182e-04  6.9316e-04  1.5997e-02  4.7647e-04  1.3546e-04  4.3486e-05  0:04:46 1668
   333  4.8029e-04  7.0379e-04  6.9251e-04  1.5601e-02  4.7194e-04  1.3401e-04  4.3036e-05  0:03:49 1667
   334  4.7492e-04  7.0554e-04  6.9087e-04  1.5148e-02  4.6658e-04  1.3261e-04  4.2587e-05  0:03:03 1666
   335  4.6932e-04  7.0643e-04  6.8802e-04  1.4654e-02  4.6102e-04  1.3120e-04  4.2120e-05  0:02:26 1665
   336  4.6279e-04  7.0787e-04  6.8427e-04  1.4125e-02  4.5453e-04  1.2967e-04  4.1641e-05  0:01:57 1664
   337  4.5503e-04  7.0931e-04  6.7962e-04  1.3570e-02  4.4682e-04  1.2816e-04  4.1120e-05  0:01:34 1663
   338  4.4641e-04  7.1043e-04  6.7406e-04  1.2996e-02  4.3824e-04  1.2662e-04  4.0488e-05  0:01:15 1662
   339  4.3717e-04  7.1110e-04  6.6761e-04  1.2409e-02  4.2908e-04  1.2509e-04  3.9825e-05  0:01:00 1661
   340  4.2750e-04  7.1123e-04  6.6027e-04  1.1816e-02  4.1947e-04  1.2336e-04  3.9163e-05  0:00:48 1660
   341  4.1744e-04  7.1076e-04  6.5206e-04  1.1221e-02  4.0951e-04  1.2155e-04  3.8535e-05  0:00:38 1659

  iter  continuity  x-velocity  y-velocity  z-velocity      energy           k       omega     time/iter
   342  4.0707e-04  7.0961e-04  6.4300e-04  1.0628e-02  3.9923e-04  1.1964e-04  3.7930e-05  0:06:02 1658
   343  3.9639e-04  7.0775e-04  6.3313e-04  1.0039e-02  3.8865e-04  1.1779e-04  3.7339e-05  0:04:50 1657
   344  3.8541e-04  7.0518e-04  6.2253e-04  9.4598e-03  3.7780e-04  1.1595e-04  3.6714e-05  0:03:52 1656
   345  3.7417e-04  7.0192e-04  6.1129e-04  8.8933e-03  3.6668e-04  1.1395e-04  3.6086e-05  0:03:05 1655
   346  3.6273e-04  6.9797e-04  5.9948e-04  8.3441e-03  3.5537e-04  1.1192e-04  3.5390e-05  0:02:28 1654
   347  3.5117e-04  6.9337e-04  5.8718e-04  7.8155e-03  3.4395e-04  1.0994e-04  3.4725e-05  0:01:58 1653
   348  3.3957e-04  6.8812e-04  5.7448e-04  7.3110e-03  3.3250e-04  1.0801e-04  3.4031e-05  0:01:35 1652
   349  3.2801e-04  6.8224e-04  5.6142e-04  6.8326e-03  3.2109e-04  1.0597e-04  3.3325e-05  0:01:16 1651
   350  3.1707e-04  6.7553e-04  5.4797e-04  6.3826e-03  3.1031e-04  1.0387e-04  3.2595e-05  0:01:00 1650
   351  3.0638e-04  6.6831e-04  5.3421e-04  5.9570e-03  2.9979e-04  1.0176e-04  3.1851e-05  0:00:48 1649
   352  2.9554e-04  6.6075e-04  5.2016e-04  5.5477e-03  2.8912e-04  9.9767e-05  3.1142e-05  0:00:39 1648

  iter  continuity  x-velocity  y-velocity  z-velocity      energy           k       omega     time/iter
   353  2.8472e-04  6.5283e-04  5.0584e-04  5.1657e-03  2.7847e-04  9.7735e-05  3.0426e-05  0:06:00 1647
   354  2.7414e-04  6.4449e-04  4.9133e-04  4.8125e-03  2.6806e-04  9.5748e-05  2.9693e-05  0:04:48 1646
   355  2.6396e-04  6.3569e-04  4.7670e-04  4.4870e-03  2.5805e-04  9.3772e-05  2.8946e-05  0:03:50 1645
   356  2.5423e-04  6.2639e-04  4.6204e-04  4.1884e-03  2.4850e-04  9.2015e-05  2.8188e-05  0:03:04 1644
   357  2.4502e-04  6.1660e-04  4.4742e-04  3.9182e-03  2.3945e-04  9.0234e-05  2.7447e-05  0:02:27 1643
   358  2.3631e-04  6.0633e-04  4.3289e-04  3.6749e-03  2.3092e-04  8.8394e-05  2.6719e-05  0:01:58 1642
   359  2.2810e-04  5.9566e-04  4.1851e-04  3.4569e-03  2.2288e-04  8.6670e-05  2.6015e-05  0:01:34 1641
   360  2.2037e-04  5.8464e-04  4.0436e-04  3.2638e-03  2.1532e-04  8.5009e-05  2.5345e-05  0:01:15 1640
   361  2.1311e-04  5.7334e-04  3.9050e-04  3.0948e-03  2.0822e-04  8.3340e-05  2.4703e-05  0:01:00 1639
   362  2.0631e-04  5.6187e-04  3.7699e-04  2.9499e-03  2.0157e-04  8.1762e-05  2.4072e-05  0:00:48 1638
   363  1.9993e-04  5.5029e-04  3.6389e-04  2.8283e-03  1.9535e-04  8.0270e-05  2.3469e-05  0:00:38 1637

  iter  continuity  x-velocity  y-velocity  z-velocity      energy           k       omega     time/iter
   364  1.9397e-04  5.3870e-04  3.5126e-04  2.7288e-03  1.8953e-04  7.8854e-05  2.2889e-05  0:05:58 1636
   365  1.8841e-04  5.2717e-04  3.3912e-04  2.6523e-03  1.8411e-04  7.7490e-05  2.2328e-05  0:04:46 1635
   366  1.8324e-04  5.1579e-04  3.2752e-04  2.6013e-03  1.7907e-04  7.6192e-05  2.1794e-05  0:03:49 1634
   367  1.7845e-04  5.0463e-04  3.1646e-04  2.5719e-03  1.7440e-04  7.5009e-05  2.1290e-05  0:03:03 1633
   368  1.7400e-04  4.9374e-04  3.0596e-04  2.5601e-03  1.7007e-04  7.3902e-05  2.0828e-05  0:02:26 1632
   369  1.6992e-04  4.8318e-04  2.9602e-04  2.5609e-03  1.6609e-04  7.2847e-05  2.0421e-05  0:01:57 1631
   370  1.6618e-04  4.7297e-04  2.8663e-04  2.5787e-03  1.6245e-04  7.1853e-05  2.0053e-05  0:01:33 1630
   371  1.6276e-04  4.6316e-04  2.7780e-04  2.6067e-03  1.5912e-04  7.0946e-05  1.9703e-05  0:01:15 1629
   372  1.5964e-04  4.5378e-04  2.6952e-04  2.6400e-03  1.5609e-04  7.0106e-05  1.9378e-05  0:01:00 1628
   373  1.5680e-04  4.4485e-04  2.6177e-04  2.6762e-03  1.5334e-04  6.9335e-05  1.9078e-05  0:00:48 1627
   374  1.5423e-04  4.3639e-04  2.5457e-04  2.7136e-03  1.5084e-04  6.8592e-05  1.8800e-05  0:00:38 1626

  iter  continuity  x-velocity  y-velocity  z-velocity      energy           k       omega     time/iter
   375  1.5190e-04  4.2841e-04  2.4788e-04  2.7501e-03  1.4859e-04  6.7959e-05  1.8536e-05  0:00:31 1625
   376  1.4979e-04  4.2092e-04  2.4171e-04  2.7836e-03  1.4655e-04  6.7470e-05  1.8281e-05  0:05:49 1624
   377  1.4788e-04  4.1390e-04  2.3602e-04  2.8125e-03  1.4470e-04  6.7068e-05  1.8039e-05  0:04:39 1623
   378  1.4615e-04  4.0736e-04  2.3079e-04  2.8368e-03  1.4303e-04  6.6801e-05  1.7811e-05  0:03:43 1622
   379  1.4457e-04  4.0127e-04  2.2600e-04  2.8535e-03  1.4151e-04  6.6635e-05  1.7600e-05  0:02:58 1621
   380  1.4317e-04  3.9563e-04  2.2160e-04  2.8578e-03  1.4017e-04  6.6539e-05  1.7387e-05  0:02:23 1620
   381  1.4182e-04  3.9045e-04  2.1756e-04  2.8507e-03  1.3888e-04  6.6506e-05  1.7178e-05  0:01:54 1619
   382  1.4049e-04  3.8568e-04  2.1385e-04  2.8344e-03  1.3760e-04  6.6476e-05  1.6976e-05  0:01:31 1618
   383  1.3919e-04  3.8129e-04  2.1045e-04  2.8096e-03  1.3635e-04  6.6404e-05  1.6788e-05  0:01:13 1617
   384  1.3790e-04  3.7725e-04  2.0733e-04  2.7798e-03  1.3511e-04  6.6391e-05  1.6617e-05  0:00:58 1616
   385  1.3660e-04  3.7352e-04  2.0443e-04  2.7437e-03  1.3386e-04  6.6388e-05  1.6461e-05  0:00:47 1615

  iter  continuity  x-velocity  y-velocity  z-velocity      energy           k       omega     time/iter
   386  1.3528e-04  3.7006e-04  2.0173e-04  2.7053e-03  1.3259e-04  6.6386e-05  1.6294e-05  0:00:37 1614
   387  1.3392e-04  3.6685e-04  1.9918e-04  2.6655e-03  1.3128e-04  6.6344e-05  1.6115e-05  0:00:30 1613
   388  1.3250e-04  3.6384e-04  1.9673e-04  2.6243e-03  1.2990e-04  6.6315e-05  1.5945e-05  0:05:46 1612
   389  1.3099e-04  3.6100e-04  1.9434e-04  2.5815e-03  1.2843e-04  6.6315e-05  1.5804e-05  0:04:37 1611
   390  1.2938e-04  3.5830e-04  1.9200e-04  2.5369e-03  1.2687e-04  6.6333e-05  1.5675e-05  0:03:41 1610
   391  1.2764e-04  3.5571e-04  1.8967e-04  2.4896e-03  1.2517e-04  6.6316e-05  1.5545e-05  0:02:57 1609
   392  1.2577e-04  3.5321e-04  1.8735e-04  2.4398e-03  1.2334e-04  6.6250e-05  1.5420e-05  0:02:21 1608
   393  1.2376e-04  3.5076e-04  1.8501e-04  2.3880e-03  1.2137e-04  6.6157e-05  1.5326e-05  0:01:53 1607
   394  1.2161e-04  3.4835e-04  1.8265e-04  2.3345e-03  1.1926e-04  6.6111e-05  1.5245e-05  0:01:30 1606
   395  1.1931e-04  3.4594e-04  1.8026e-04  2.2797e-03  1.1701e-04  6.6068e-05  1.5179e-05  0:01:12 1605
   396  1.1689e-04  3.4353e-04  1.7781e-04  2.2244e-03  1.1462e-04  6.5966e-05  1.5108e-05  0:00:58 1604

  iter  continuity  x-velocity  y-velocity  z-velocity      energy           k       omega     time/iter
   397  1.1433e-04  3.4109e-04  1.7529e-04  2.1681e-03  1.1211e-04  6.5831e-05  1.5035e-05  0:00:46 1603
   398  1.1167e-04  3.3860e-04  1.7271e-04  2.1125e-03  1.0948e-04  6.5714e-05  1.4971e-05  0:00:37 1602
   399  1.0891e-04  3.3605e-04  1.7003e-04  2.0587e-03  1.0676e-04  6.5629e-05  1.4904e-05  0:00:30 1601
   400  1.0606e-04  3.3342e-04  1.6727e-04  2.0073e-03  1.0395e-04  6.5553e-05  1.4829e-05  0:05:44 1600
   401  1.0315e-04  3.3070e-04  1.6441e-04  1.9578e-03  1.0107e-04  6.5444e-05  1.4752e-05  0:04:35 1599
   402  1.0019e-04  3.2787e-04  1.6146e-04  1.9102e-03  9.8141e-05  6.5292e-05  1.4661e-05  0:03:40 1598
   403  9.7196e-05  3.2494e-04  1.5842e-04  1.8645e-03  9.5183e-05  6.5157e-05  1.4575e-05  0:02:56 1597
   404  9.4255e-05  3.2188e-04  1.5529e-04  1.8206e-03  9.2277e-05  6.5007e-05  1.4507e-05  0:02:20 1596
   405  9.1316e-05  3.1873e-04  1.5207e-04  1.7786e-03  8.9371e-05  6.4847e-05  1.4441e-05  0:01:52 1595
   406  8.8364e-05  3.1547e-04  1.4879e-04  1.7385e-03  8.6449e-05  6.4710e-05  1.4354e-05  0:01:30 1594
   407  8.5436e-05  3.1209e-04  1.4544e-04  1.7010e-03  8.3551e-05  6.4528e-05  1.4251e-05  0:01:12 1593

  iter  continuity  x-velocity  y-velocity  z-velocity      energy           k       omega     time/iter
   408  8.2573e-05  3.0861e-04  1.4207e-04  1.6657e-03  8.0718e-05  6.4361e-05  1.4152e-05  0:00:57 1592
   409  7.9810e-05  3.0503e-04  1.3867e-04  1.6329e-03  7.7984e-05  6.4204e-05  1.4062e-05  0:00:46 1591
   410  7.7177e-05  3.0136e-04  1.3527e-04  1.6034e-03  7.5379e-05  6.3994e-05  1.3971e-05  0:00:37 1590
   411  7.4696e-05  2.9760e-04  1.3185e-04  1.5775e-03  7.2926e-05  6.3798e-05  1.3883e-05  0:00:29 1589
   412  7.2381e-05  2.9377e-04  1.2844e-04  1.5559e-03  7.0639e-05  6.3600e-05  1.3781e-05  0:05:41 1588
   413  7.0243e-05  2.8988e-04  1.2504e-04  1.5380e-03  6.8530e-05  6.3423e-05  1.3675e-05  0:04:33 1587
   414  6.8296e-05  2.8596e-04  1.2166e-04  1.5235e-03  6.6612e-05  6.3208e-05  1.3549e-05  0:03:38 1586
   415  6.6544e-05  2.8202e-04  1.1834e-04  1.5121e-03  6.4890e-05  6.2980e-05  1.3435e-05  0:02:54 1585
   416  6.4991e-05  2.7809e-04  1.1509e-04  1.5040e-03  6.3367e-05  6.2731e-05  1.3304e-05  0:02:19 1584
   417  6.3639e-05  2.7420e-04  1.1192e-04  1.4987e-03  6.2046e-05  6.2461e-05  1.3181e-05  0:01:51 1583
   418  6.2488e-05  2.7036e-04  1.0887e-04  1.4955e-03  6.0927e-05  6.2183e-05  1.3063e-05  0:01:29 1582

  iter  continuity  x-velocity  y-velocity  z-velocity      energy           k       omega     time/iter
   419  6.1538e-05  2.6659e-04  1.0595e-04  1.4941e-03  6.0008e-05  6.1884e-05  1.2940e-05  0:01:11 1581
   420  6.0783e-05  2.6293e-04  1.0316e-04  1.4937e-03  5.9286e-05  6.1519e-05  1.2818e-05  0:00:57 1580
   421  6.0216e-05  2.5939e-04  1.0053e-04  1.4935e-03  5.8752e-05  6.1175e-05  1.2698e-05  0:00:46 1579
   422  5.9827e-05  2.5600e-04  9.8052e-05  1.4935e-03  5.8396e-05  6.0758e-05  1.2575e-05  0:00:36 1578
   423  5.9604e-05  2.5276e-04  9.5747e-05  1.4938e-03  5.8206e-05  6.0332e-05  1.2454e-05  0:00:29 1577
   424  5.9532e-05  2.4970e-04  9.3616e-05  1.4940e-03  5.8167e-05  5.9848e-05  1.2325e-05  0:05:38 1576
   425  5.9597e-05  2.4684e-04  9.1668e-05  1.4940e-03  5.8264e-05  5.9294e-05  1.2201e-05  0:04:31 1575
   426  5.9783e-05  2.4417e-04  8.9908e-05  1.4933e-03  5.8480e-05  5.8685e-05  1.2064e-05  0:03:36 1574
   427  6.0072e-05  2.4171e-04  8.8341e-05  1.4916e-03  5.8799e-05  5.8050e-05  1.1927e-05  0:02:53 1573
   428  6.0449e-05  2.3946e-04  8.6970e-05  1.4889e-03  5.9203e-05  5.7413e-05  1.1785e-05  0:02:18 1572
   429  6.0898e-05  2.3743e-04  8.5797e-05  1.4848e-03  5.9678e-05  5.6742e-05  1.1656e-05  0:01:51 1571

  iter  continuity  x-velocity  y-velocity  z-velocity      energy           k       omega     time/iter
   430  6.1402e-05  2.3561e-04  8.4822e-05  1.4784e-03  6.0207e-05  5.6034e-05  1.1526e-05  0:01:28 1570
   431  6.1949e-05  2.3399e-04  8.4043e-05  1.4689e-03  6.0776e-05  5.5247e-05  1.1391e-05  0:01:11 1569
   432  6.2523e-05  2.3257e-04  8.3453e-05  1.4557e-03  6.1370e-05  5.4399e-05  1.1255e-05  0:06:10 1568
   433  6.3111e-05  2.3135e-04  8.3047e-05  1.4382e-03  6.1977e-05  5.3503e-05  1.1122e-05  0:04:56 1567
   434  6.3702e-05  2.3030e-04  8.2814e-05  1.4161e-03  6.2584e-05  5.2623e-05  1.0978e-05  0:03:57 1566
   435  6.4284e-05  2.2943e-04  8.2743e-05  1.3889e-03  6.3180e-05  5.1748e-05  1.0841e-05  0:03:09 1565
   436  6.4845e-05  2.2870e-04  8.2821e-05  1.3568e-03  6.3753e-05  5.0821e-05  1.0709e-05  0:02:31 1564
   437  6.5376e-05  2.2811e-04  8.3031e-05  1.3205e-03  6.4295e-05  4.9865e-05  1.0579e-05  0:02:01 1563
   438  6.5867e-05  2.2764e-04  8.3359e-05  1.2805e-03  6.4795e-05  4.8843e-05  1.0467e-05  0:01:37 1562
   439  6.6310e-05  2.2727e-04  8.3788e-05  1.2377e-03  6.5245e-05  4.7841e-05  1.0369e-05  0:01:17 1561
   440  6.6697e-05  2.2698e-04  8.4299e-05  1.1935e-03  6.5637e-05  4.6876e-05  1.0284e-05  0:01:02 1560

  iter  continuity  x-velocity  y-velocity  z-velocity      energy           k       omega     time/iter
   441  6.7019e-05  2.2676e-04  8.4876e-05  1.1497e-03  6.5964e-05  4.5930e-05  1.0211e-05  0:00:49 1559
   442  6.7271e-05  2.2658e-04  8.5501e-05  1.1082e-03  6.6220e-05  4.4972e-05  1.0144e-05  0:00:39 1558
   443  6.7447e-05  2.2644e-04  8.6156e-05  1.0714e-03  6.6398e-05  4.3989e-05  1.0078e-05  0:05:43 1557
   444  6.7542e-05  2.2631e-04  8.6824e-05  1.0414e-03  6.6494e-05  4.3033e-05  1.0012e-05  0:04:34 1556
   445  6.7552e-05  2.2618e-04  8.7491e-05  1.0206e-03  6.6506e-05  4.2106e-05  9.9421e-06  0:03:39 1555
   446  6.7474e-05  2.2603e-04  8.8138e-05  1.0106e-03  6.6428e-05  4.1196e-05  9.8901e-06  0:02:55 1554
   447  6.7306e-05  2.2586e-04  8.8753e-05  1.0088e-03  6.6260e-05  4.0290e-05  9.8470e-06  0:02:20 1553
   448  6.7047e-05  2.2565e-04  8.9322e-05  1.0145e-03  6.6001e-05  3.9403e-05  9.7953e-06  0:01:52 1552
   449  6.6695e-05  2.2540e-04  8.9830e-05  1.0293e-03  6.5650e-05  3.8560e-05  9.7522e-06  0:01:30 1551
   450  6.6253e-05  2.2508e-04  9.0268e-05  1.0533e-03  6.5208e-05  3.7729e-05  9.7085e-06  0:01:12 1550
   451  6.5722e-05  2.2470e-04  9.0623e-05  1.0868e-03  6.4678e-05  3.6958e-05  9.6742e-06  0:00:57 1549

  iter  continuity  x-velocity  y-velocity  z-velocity      energy           k       omega     time/iter
   452  6.5104e-05  2.2425e-04  9.0887e-05  1.1291e-03  6.4062e-05  3.6219e-05  9.6510e-06  0:00:46 1548
   453  6.4403e-05  2.2372e-04  9.1052e-05  1.1792e-03  6.3363e-05  3.5507e-05  9.6334e-06  0:00:37 1547
   454  6.3623e-05  2.2310e-04  9.1110e-05  1.2354e-03  6.2586e-05  3.4855e-05  9.6271e-06  0:05:38 1546
   455  6.2770e-05  2.2240e-04  9.1056e-05  1.2961e-03  6.1737e-05  3.4266e-05  9.6268e-06  0:04:31 1545
   456  6.1850e-05  2.2162e-04  9.0885e-05  1.3594e-03  6.0822e-05  3.3731e-05  9.6329e-06  0:03:36 1544
   457  6.0870e-05  2.2074e-04  9.0593e-05  1.4235e-03  5.9847e-05  3.3215e-05  9.6428e-06  0:02:53 1543
   458  5.9836e-05  2.1977e-04  9.0180e-05  1.4843e-03  5.8821e-05  3.2684e-05  9.6648e-06  0:02:18 1542
   459  5.8757e-05  2.1871e-04  8.9644e-05  1.5430e-03  5.7750e-05  3.2205e-05  9.6968e-06  0:01:51 1541
   460  5.7640e-05  2.1756e-04  8.8985e-05  1.5987e-03  5.6643e-05  3.1765e-05  9.7359e-06  0:01:28 1540
   461  5.6494e-05  2.1632e-04  8.8206e-05  1.6511e-03  5.5509e-05  3.1364e-05  9.7802e-06  0:01:11 1539
   462  5.5328e-05  2.1500e-04  8.7308e-05  1.6985e-03  5.4356e-05  3.1070e-05  9.8187e-06  0:00:56 1538

  iter  continuity  x-velocity  y-velocity  z-velocity      energy           k       omega     time/iter
   463  5.4152e-05  2.1359e-04  8.6295e-05  1.7404e-03  5.3193e-05  3.0835e-05  9.8578e-06  0:00:45 1537
   464  5.2972e-05  2.1211e-04  8.5173e-05  1.7757e-03  5.2029e-05  3.0631e-05  9.8905e-06  0:05:43 1536
   465  5.1800e-05  2.1055e-04  8.3946e-05  1.8040e-03  5.0873e-05  3.0473e-05  9.9246e-06  0:04:34 1535
   466  5.0643e-05  2.0892e-04  8.2621e-05  1.8249e-03  4.9734e-05  3.0346e-05  9.9588e-06  0:03:39 1534
   467  4.9509e-05  2.0723e-04  8.1207e-05  1.8391e-03  4.8620e-05  3.0209e-05  9.9900e-06  0:02:55 1533
   468  4.8407e-05  2.0549e-04  7.9710e-05  1.8467e-03  4.7538e-05  3.0089e-05  1.0017e-05  0:02:20 1532
   469  4.7342e-05  2.0369e-04  7.8140e-05  1.8488e-03  4.6495e-05  3.0002e-05  1.0039e-05  0:01:52 1531
   470  4.6322e-05  2.0185e-04  7.6505e-05  1.8453e-03  4.5498e-05  2.9929e-05  1.0057e-05  0:01:30 1530
   471  4.5351e-05  1.9998e-04  7.4816e-05  1.8370e-03  4.4551e-05  2.9857e-05  1.0089e-05  0:01:12 1529
   472  4.4433e-05  1.9808e-04  7.3082e-05  1.8243e-03  4.3658e-05  2.9768e-05  1.0121e-05  0:00:57 1528
   473  4.3573e-05  1.9617e-04  7.1313e-05  1.8088e-03  4.2823e-05  2.9662e-05  1.0145e-05  0:00:46 1527

  iter  continuity  x-velocity  y-velocity  z-velocity      energy           k       omega     time/iter
   474  4.2770e-05  1.9424e-04  6.9520e-05  1.7913e-03  4.2046e-05  2.9563e-05  1.0161e-05  0:05:42 1526
   475  4.2027e-05  1.9224e-04  6.7713e-05  1.7725e-03  4.1328e-05  2.9477e-05  1.0175e-05  0:04:33 1525
   476  4.1342e-05  1.9025e-04  6.5901e-05  1.7463e-03  4.0670e-05  2.9409e-05  1.0182e-05  0:03:38 1524
   477  4.0715e-05  1.8828e-04  6.4095e-05  1.7139e-03  4.0069e-05  2.9382e-05  1.0183e-05  0:02:55 1523
   478  4.0128e-05  1.8631e-04  6.2306e-05  1.6773e-03  3.9506e-05  2.9376e-05  1.0183e-05  0:02:20 1522
   479  3.9581e-05  1.8437e-04  6.0542e-05  1.6339e-03  3.8984e-05  2.9341e-05  1.0181e-05  0:01:52 1521
   480  3.9102e-05  1.8245e-04  5.8812e-05  1.5834e-03  3.8528e-05  2.9313e-05  1.0175e-05  0:01:29 1520
   481  3.8674e-05  1.8056e-04  5.7124e-05  1.5269e-03  3.8123e-05  2.9277e-05  1.0163e-05  0:01:11 1519
   482  3.8292e-05  1.7870e-04  5.5489e-05  1.4665e-03  3.7763e-05  2.9274e-05  1.0147e-05  0:06:01 1518
   483  3.7950e-05  1.7686e-04  5.3913e-05  1.4039e-03  3.7441e-05  2.9290e-05  1.0132e-05  0:04:48 1517
   484  3.7643e-05  1.7507e-04  5.2402e-05  1.3406e-03  3.7154e-05  2.9337e-05  1.0115e-05  0:03:51 1516

  iter  continuity  x-velocity  y-velocity  z-velocity      energy           k       omega     time/iter
   485  3.7362e-05  1.7331e-04  5.0963e-05  1.2770e-03  3.6891e-05  2.9417e-05  1.0108e-05  0:03:04 1515
   486  3.7103e-05  1.7159e-04  4.9600e-05  1.2146e-03  3.6648e-05  2.9490e-05  1.0101e-05  0:02:27 1514
   487  3.6863e-05  1.6990e-04  4.8318e-05  1.1545e-03  3.6424e-05  2.9543e-05  1.0093e-05  0:01:58 1513
   488  3.6641e-05  1.6825e-04  4.7120e-05  1.0974e-03  3.6215e-05  2.9606e-05  1.0085e-05  0:01:34 1512
   489  3.6434e-05  1.6663e-04  4.6008e-05  1.0440e-03  3.6021e-05  2.9684e-05  1.0075e-05  0:01:15 1511
   490  3.6241e-05  1.6504e-04  4.4984e-05  9.9466e-04  3.5839e-05  2.9750e-05  1.0061e-05  0:01:00 1510
   491  3.6062e-05  1.6348e-04  4.4048e-05  9.4971e-04  3.5669e-05  2.9814e-05  1.0049e-05  0:00:48 1509
   492  3.5896e-05  1.6195e-04  4.3200e-05  9.0962e-04  3.5511e-05  2.9892e-05  1.0038e-05  0:05:40 1508
   493  3.5742e-05  1.6046e-04  4.2439e-05  8.7469e-04  3.5365e-05  2.9978e-05  1.0025e-05  0:04:32 1507
   494  3.5598e-05  1.5900e-04  4.1763e-05  8.4449e-04  3.5227e-05  3.0079e-05  1.0014e-05  0:03:37 1506
   495  3.5464e-05  1.5756e-04  4.1170e-05  8.1932e-04  3.5097e-05  3.0186e-05  9.9999e-06  0:02:54 1505

  iter  continuity  x-velocity  y-velocity  z-velocity      energy           k       omega     time/iter
   496  3.5335e-05  1.5613e-04  4.0657e-05  7.9915e-04  3.4972e-05  3.0292e-05  9.9848e-06  0:02:19 1504
   497  3.5210e-05  1.5473e-04  4.0220e-05  7.8374e-04  3.4851e-05  3.0389e-05  9.9659e-06  0:01:51 1503
   498  3.5088e-05  1.5334e-04  3.9857e-05  7.7273e-04  3.4731e-05  3.0480e-05  9.9436e-06  0:01:29 1502
   499  3.4969e-05  1.5195e-04  3.9563e-05  7.6576e-04  3.4613e-05  3.0559e-05  9.9212e-06  0:01:11 1501
   500  3.4853e-05  1.5057e-04  3.9332e-05  7.6217e-04  3.4496e-05  3.0619e-05  9.9005e-06  0:05:57 1500
   501  3.4740e-05  1.4920e-04  3.9162e-05  7.6165e-04  3.4383e-05  3.0663e-05  9.8817e-06  0:04:45 1499
   502  3.4633e-05  1.4783e-04  3.9045e-05  7.6385e-04  3.4274e-05  3.0689e-05  9.8629e-06  0:03:48 1498
   503  3.4530e-05  1.4646e-04  3.8979e-05  7.6828e-04  3.4169e-05  3.0700e-05  9.8420e-06  0:03:02 1497
   504  3.4436e-05  1.4509e-04  3.8957e-05  7.7449e-04  3.4072e-05  3.0690e-05  9.8197e-06  0:02:26 1496
   505  3.4351e-05  1.4371e-04  3.8975e-05  7.8220e-04  3.3984e-05  3.0660e-05  9.7977e-06  0:01:57 1495
   506  3.4276e-05  1.4233e-04  3.9030e-05  7.9097e-04  3.3905e-05  3.0609e-05  9.7618e-06  0:01:33 1494

  iter  continuity  x-velocity  y-velocity  z-velocity      energy           k       omega     time/iter
   507  3.4211e-05  1.4094e-04  3.9116e-05  8.0045e-04  3.3836e-05  3.0541e-05  9.7227e-06  0:01:14 1493
   508  3.4155e-05  1.3955e-04  3.9229e-05  8.1037e-04  3.3776e-05  3.0462e-05  9.6859e-06  0:01:00 1492
   509  3.4108e-05  1.3814e-04  3.9366e-05  8.2040e-04  3.3724e-05  3.0368e-05  9.6523e-06  0:05:46 1491
   510  3.4071e-05  1.3673e-04  3.9524e-05  8.3027e-04  3.3683e-05  3.0253e-05  9.6170e-06  0:04:36 1490
   511  3.4044e-05  1.3531e-04  3.9699e-05  8.3988e-04  3.3651e-05  3.0122e-05  9.5801e-06  0:03:41 1489
   512  3.4027e-05  1.3388e-04  3.9888e-05  8.4915e-04  3.3629e-05  2.9976e-05  9.5397e-06  0:02:57 1488
   513  3.4020e-05  1.3244e-04  4.0088e-05  8.5806e-04  3.3616e-05  2.9819e-05  9.4971e-06  0:02:21 1487
   514  3.4022e-05  1.3099e-04  4.0296e-05  8.6652e-04  3.3613e-05  2.9649e-05  9.4522e-06  0:01:53 1486
   515  3.4032e-05  1.2953e-04  4.0509e-05  8.7444e-04  3.3618e-05  2.9463e-05  9.4036e-06  0:01:30 1485
   516  3.4051e-05  1.2807e-04  4.0726e-05  8.8179e-04  3.3632e-05  2.9266e-05  9.3535e-06  0:01:12 1484
   517  3.4078e-05  1.2661e-04  4.0945e-05  8.8845e-04  3.3655e-05  2.9054e-05  9.3006e-06  0:00:58 1483

  iter  continuity  x-velocity  y-velocity  z-velocity      energy           k       omega     time/iter
   518  3.4113e-05  1.2514e-04  4.1163e-05  8.9432e-04  3.3684e-05  2.8832e-05  9.2457e-06  0:05:43 1482
   519  3.4155e-05  1.2367e-04  4.1380e-05  8.9952e-04  3.3722e-05  2.8603e-05  9.1892e-06  0:04:34 1481
   520  3.4204e-05  1.2220e-04  4.1595e-05  9.0411e-04  3.3766e-05  2.8369e-05  9.1302e-06  0:03:39 1480
   521  3.4260e-05  1.2074e-04  4.1805e-05  9.0809e-04  3.3817e-05  2.8123e-05  9.0689e-06  0:02:55 1479
   522  3.4321e-05  1.1928e-04  4.2012e-05  9.1147e-04  3.3874e-05  2.7864e-05  9.0039e-06  0:02:20 1478
   523  3.4388e-05  1.1782e-04  4.2213e-05  9.1422e-04  3.3937e-05  2.7601e-05  8.9249e-06  0:01:52 1477
   524  3.4461e-05  1.1638e-04  4.2410e-05  9.1628e-04  3.4006e-05  2.7328e-05  8.8402e-06  0:01:29 1476
   525  3.4538e-05  1.1494e-04  4.2601e-05  9.1759e-04  3.4079e-05  2.7048e-05  8.7617e-06  0:01:11 1475
   526  3.4620e-05  1.1352e-04  4.2788e-05  9.1809e-04  3.4157e-05  2.6766e-05  8.6825e-06  0:00:57 1474
   527  3.4705e-05  1.1211e-04  4.2971e-05  9.1783e-04  3.4239e-05  2.6487e-05  8.6005e-06  0:00:46 1473
   528  3.4794e-05  1.1072e-04  4.3150e-05  9.1670e-04  3.4325e-05  2.6205e-05  8.5164e-06  0:05:31 1472

  iter  continuity  x-velocity  y-velocity  z-velocity      energy           k       omega     time/iter
   529  3.4887e-05  1.0935e-04  4.3325e-05  9.1456e-04  3.4414e-05  2.5918e-05  8.4319e-06  0:04:25 1471
   530  3.4983e-05  1.0800e-04  4.3499e-05  9.1135e-04  3.4506e-05  2.5629e-05  8.3482e-06  0:03:32 1470
   531  3.5082e-05  1.0667e-04  4.3671e-05  9.0716e-04  3.4602e-05  2.5334e-05  8.2596e-06  0:02:49 1469
   532  3.5184e-05  1.0537e-04  4.3843e-05  9.0190e-04  3.4700e-05  2.5036e-05  8.1682e-06  0:02:15 1468
   533  3.5288e-05  1.0409e-04  4.4016e-05  8.9547e-04  3.4801e-05  2.4746e-05  8.0763e-06  0:01:48 1467
   534  3.5394e-05  1.0284e-04  4.4191e-05  8.8812e-04  3.4904e-05  2.4459e-05  7.9832e-06  0:01:26 1466
   535  3.5502e-05  1.0162e-04  4.4368e-05  8.7976e-04  3.5009e-05  2.4171e-05  7.8896e-06  0:01:09 1465
   536  3.5612e-05  1.0043e-04  4.4550e-05  8.7017e-04  3.5116e-05  2.3882e-05  7.7973e-06  0:00:55 1464
   537  3.5724e-05  9.9270e-05  4.4737e-05  8.5953e-04  3.5224e-05  2.3599e-05  7.7044e-06  0:00:44 1463
   538  3.5837e-05  9.8143e-05  4.4929e-05  8.4809e-04  3.5334e-05  2.3323e-05  7.6101e-06  0:05:28 1462
   539  3.5952e-05  9.7042e-05  4.5129e-05  8.3604e-04  3.5445e-05  2.3077e-05  7.5076e-06  0:04:22 1461

  iter  continuity  x-velocity  y-velocity  z-velocity      energy           k       omega     time/iter
   540  3.6075e-05  9.5957e-05  4.5335e-05  8.2340e-04  3.5564e-05  2.2813e-05  7.4114e-06  0:03:29 1460
   541  3.6194e-05  9.4920e-05  4.5550e-05  8.1012e-04  3.5679e-05  2.2547e-05  7.3163e-06  0:02:47 1459
   542  3.6311e-05  9.3917e-05  4.5773e-05  7.9620e-04  3.5792e-05  2.2285e-05  7.2251e-06  0:02:14 1458
   543  3.6427e-05  9.2950e-05  4.6005e-05  7.8171e-04  3.5904e-05  2.2033e-05  7.1369e-06  0:01:47 1457
   544  3.6544e-05  9.2018e-05  4.6245e-05  7.6666e-04  3.6017e-05  2.1785e-05  7.0496e-06  0:01:26 1456
   545  3.6661e-05  9.1121e-05  4.6495e-05  7.5113e-04  3.6130e-05  2.1542e-05  6.9622e-06  0:01:08 1455
   546  3.6778e-05  9.0259e-05  4.6754e-05  7.3517e-04  3.6243e-05  2.1305e-05  6.8759e-06  0:05:45 1454
   547  3.6893e-05  8.9431e-05  4.7021e-05  7.1904e-04  3.6354e-05  2.1075e-05  6.7914e-06  0:04:36 1453
   548  3.7007e-05  8.8635e-05  4.7296e-05  7.0265e-04  3.6463e-05  2.0853e-05  6.7068e-06  0:03:41 1452
   549  3.7117e-05  8.7872e-05  4.7577e-05  6.8613e-04  3.6569e-05  2.0636e-05  6.6249e-06  0:02:57 1451
   550  3.7225e-05  8.7139e-05  4.7864e-05  6.6956e-04  3.6672e-05  2.0422e-05  6.5480e-06  0:02:21 1450

  iter  continuity  x-velocity  y-velocity  z-velocity      energy           k       omega     time/iter
   551  3.7328e-05  8.6435e-05  4.8155e-05  6.5302e-04  3.6770e-05  2.0211e-05  6.4738e-06  0:01:53 1449
   552  3.7425e-05  8.5758e-05  4.8449e-05  6.3664e-04  3.6863e-05  2.0006e-05  6.4018e-06  0:01:30 1448
   553  3.7517e-05  8.5106e-05  4.8746e-05  6.2051e-04  3.6950e-05  1.9808e-05  6.3317e-06  0:01:12 1447
   554  3.7582e-05  8.4474e-05  4.9040e-05  6.0474e-04  3.7010e-05  1.9617e-05  6.2637e-06  0:00:58 1446
   555  3.7644e-05  8.3866e-05  4.9335e-05  5.8939e-04  3.7068e-05  1.9433e-05  6.1973e-06  0:00:46 1445
   556  3.7702e-05  8.3280e-05  4.9627e-05  5.7451e-04  3.7122e-05  1.9258e-05  6.1323e-06  0:05:26 1444
   557  3.7753e-05  8.2713e-05  4.9914e-05  5.6019e-04  3.7168e-05  1.9088e-05  6.0685e-06  0:04:20 1443
   558  3.7793e-05  8.2161e-05  5.0194e-05  5.4648e-04  3.7204e-05  1.8923e-05  6.0065e-06  0:03:28 1442
   559  3.7821e-05  8.1624e-05  5.0466e-05  5.3343e-04  3.7228e-05  1.8764e-05  5.9466e-06  0:02:46 1441
   560  3.7837e-05  8.1100e-05  5.0727e-05  5.2109e-04  3.7239e-05  1.8611e-05  5.8875e-06  0:02:13 1440
   561  3.7837e-05  8.0585e-05  5.0975e-05  5.0927e-04  3.7236e-05  1.8460e-05  5.8299e-06  0:01:46 1439

  iter  continuity  x-velocity  y-velocity  z-velocity      energy           k       omega     time/iter
   562  3.7823e-05  8.0080e-05  5.1208e-05  4.9815e-04  3.7219e-05  1.8312e-05  5.7746e-06  0:01:25 1438
   563  3.7794e-05  7.9581e-05  5.1425e-05  4.8778e-04  3.7185e-05  1.8168e-05  5.7212e-06  0:01:08 1437
   564  3.7748e-05  7.9088e-05  5.1622e-05  4.7819e-04  3.7137e-05  1.8028e-05  5.6514e-06  0:00:54 1436
   565  3.7686e-05  7.8598e-05  5.1799e-05  4.6936e-04  3.7071e-05  1.7896e-05  5.5920e-06  0:05:30 1435
   566  3.7606e-05  7.8110e-05  5.1954e-05  4.6129e-04  3.6990e-05  1.7766e-05  5.5475e-06  0:04:24 1434
   567  3.7510e-05  7.7622e-05  5.2084e-05  4.5397e-04  3.6891e-05  1.7638e-05  5.4989e-06  0:03:31 1433
   568  3.7396e-05  7.7134e-05  5.2189e-05  4.4738e-04  3.6775e-05  1.7511e-05  5.4484e-06  0:02:49 1432
   569  3.7264e-05  7.6643e-05  5.2268e-05  4.4151e-04  3.6641e-05  1.7387e-05  5.3972e-06  0:02:15 1431
   570  3.7113e-05  7.6149e-05  5.2318e-05  4.3630e-04  3.6490e-05  1.7263e-05  5.3450e-06  0:01:48 1430
   571  3.6945e-05  7.5650e-05  5.2339e-05  4.3157e-04  3.6320e-05  1.7142e-05  5.2949e-06  0:01:26 1429
   572  3.6758e-05  7.5147e-05  5.2331e-05  4.2739e-04  3.6133e-05  1.7031e-05  5.2443e-06  0:01:09 1428

  iter  continuity  x-velocity  y-velocity  z-velocity      energy           k       omega     time/iter
   573  3.6554e-05  7.4637e-05  5.2292e-05  4.2371e-04  3.5929e-05  1.6925e-05  5.1922e-06  0:00:55 1427
   574  3.6331e-05  7.4120e-05  5.2222e-05  4.2052e-04  3.5707e-05  1.6820e-05  5.1381e-06  0:00:44 1426
   575  3.6092e-05  7.3595e-05  5.2120e-05  4.1776e-04  3.5467e-05  1.6717e-05  5.0834e-06  0:05:20 1425
   576  3.5835e-05  7.3061e-05  5.1987e-05  4.1540e-04  3.5212e-05  1.6613e-05  5.0289e-06  0:04:16 1424
   577  3.5562e-05  7.2518e-05  5.1822e-05  4.1344e-04  3.4941e-05  1.6505e-05  4.9748e-06  0:03:25 1423
   578  3.5274e-05  7.1964e-05  5.1626e-05  4.1184e-04  3.4654e-05  1.6393e-05  4.9202e-06  0:02:44 1422
   579  3.4970e-05  7.1400e-05  5.1398e-05  4.1059e-04  3.4353e-05  1.6278e-05  4.8661e-06  0:02:11 1421
   580  3.4653e-05  7.0825e-05  5.1139e-05  4.0966e-04  3.4038e-05  1.6161e-05  4.8123e-06  0:01:45 1420
   581  3.4323e-05  7.0237e-05  5.0849e-05  4.0898e-04  3.3711e-05  1.6039e-05  4.7588e-06  0:01:24 1419
   582  3.3980e-05  6.9638e-05  5.0530e-05  4.0861e-04  3.3372e-05  1.5912e-05  4.7076e-06  0:01:07 1418
   583  3.3627e-05  6.9026e-05  5.0183e-05  4.0850e-04  3.3022e-05  1.5782e-05  4.6567e-06  0:00:53 1417

  iter  continuity  x-velocity  y-velocity  z-velocity      energy           k       omega     time/iter
   584  3.3263e-05  6.8401e-05  4.9808e-05  4.0863e-04  3.2662e-05  1.5652e-05  4.6057e-06  0:00:43 1416
   585  3.2890e-05  6.7764e-05  4.9407e-05  4.0895e-04  3.2294e-05  1.5520e-05  4.5544e-06  0:05:17 1415
   586  3.2510e-05  6.7115e-05  4.8981e-05  4.0944e-04  3.1918e-05  1.5384e-05  4.5036e-06  0:04:14 1414
   587  3.2123e-05  6.6454e-05  4.8532e-05  4.1008e-04  3.1536e-05  1.5246e-05  4.4527e-06  0:03:23 1413
   588  3.1730e-05  6.5782e-05  4.8061e-05  4.1081e-04  3.1148e-05  1.5103e-05  4.4015e-06  0:02:42 1412
   589  3.1332e-05  6.5098e-05  4.7571e-05  4.1163e-04  3.0756e-05  1.4962e-05  4.3509e-06  0:02:10 1411
   590  3.0931e-05  6.4404e-05  4.7062e-05  4.1251e-04  3.0360e-05  1.4819e-05  4.3010e-06  0:01:44 1410
   591  3.0528e-05  6.3700e-05  4.6536e-05  4.1344e-04  2.9963e-05  1.4670e-05  4.2513e-06  0:01:23 1409
   592  3.0123e-05  6.2987e-05  4.5996e-05  4.1438e-04  2.9564e-05  1.4519e-05  4.2013e-06  0:01:06 1408
   593  2.9718e-05  6.2266e-05  4.5442e-05  4.1534e-04  2.9165e-05  1.4368e-05  4.1517e-06  0:00:53 1407
   594  2.9314e-05  6.1538e-05  4.4878e-05  4.1634e-04  2.8767e-05  1.4215e-05  4.1019e-06  0:05:23 1406

  iter  continuity  x-velocity  y-velocity  z-velocity      energy           k       omega     time/iter
   595  2.8911e-05  6.0803e-05  4.4304e-05  4.1738e-04  2.8370e-05  1.4059e-05  4.0520e-06  0:04:19 1405
   596  2.8511e-05  6.0063e-05  4.3723e-05  4.1846e-04  2.7976e-05  1.3900e-05  4.0024e-06  0:03:27 1404
   597  2.8113e-05  5.9319e-05  4.3137e-05  4.1956e-04  2.7585e-05  1.3738e-05  3.9529e-06  0:02:45 1403
   598  2.7720e-05  5.8571e-05  4.2546e-05  4.2066e-04  2.7198e-05  1.3575e-05  3.9033e-06  0:02:12 1402
   599  2.7332e-05  5.7820e-05  4.1954e-05  4.2176e-04  2.6816e-05  1.3410e-05  3.8545e-06  0:01:46 1401
   600  2.6949e-05  5.7069e-05  4.1361e-05  4.2282e-04  2.6440e-05  1.3247e-05  3.8064e-06  0:01:24 1400
   601  2.6571e-05  5.6317e-05  4.0769e-05  4.2383e-04  2.6069e-05  1.3081e-05  3.7586e-06  0:01:08 1399
   602  2.6200e-05  5.5567e-05  4.0179e-05  4.2477e-04  2.5704e-05  1.2913e-05  3.7109e-06  0:00:54 1398
   603  2.5835e-05  5.4818e-05  3.9594e-05  4.2562e-04  2.5346e-05  1.2744e-05  3.6635e-06  0:00:43 1397
   604  2.5478e-05  5.4072e-05  3.9014e-05  4.2636e-04  2.4994e-05  1.2575e-05  3.6160e-06  0:05:14 1396
   605  2.5127e-05  5.3331e-05  3.8441e-05  4.2700e-04  2.4650e-05  1.2404e-05  3.5684e-06  0:04:11 1395

  iter  continuity  x-velocity  y-velocity  z-velocity      energy           k       omega     time/iter
   606  2.4784e-05  5.2594e-05  3.7876e-05  4.2752e-04  2.4313e-05  1.2235e-05  3.5208e-06  0:03:20 1394
   607  2.4449e-05  5.1864e-05  3.7319e-05  4.2792e-04  2.3984e-05  1.2066e-05  3.4740e-06  0:02:40 1393
   608  2.4121e-05  5.1141e-05  3.6773e-05  4.2819e-04  2.3662e-05  1.1896e-05  3.4275e-06  0:02:08 1392
   609  2.3802e-05  5.0425e-05  3.6236e-05  4.2831e-04  2.3349e-05  1.1726e-05  3.3807e-06  0:01:42 1391
   610  2.3489e-05  4.9718e-05  3.5711e-05  4.2828e-04  2.3042e-05  1.1557e-05  3.3345e-06  0:01:22 1390
   611  2.3185e-05  4.9021e-05  3.5198e-05  4.2807e-04  2.2743e-05  1.1387e-05  3.2885e-06  0:01:05 1389
   612  2.2888e-05  4.8334e-05  3.4697e-05  4.2766e-04  2.2452e-05  1.1217e-05  3.2428e-06  0:00:52 1388
   613  2.2598e-05  4.7658e-05  3.4209e-05  4.2704e-04  2.2168e-05  1.1049e-05  3.1970e-06  0:05:19 1387
   614  2.2316e-05  4.6993e-05  3.3734e-05  4.2619e-04  2.1890e-05  1.0879e-05  3.1510e-06  0:04:15 1386
   615  2.2040e-05  4.6341e-05  3.3271e-05  4.2507e-04  2.1620e-05  1.0711e-05  3.1056e-06  0:03:24 1385
   616  2.1771e-05  4.5701e-05  3.2822e-05  4.2368e-04  2.1356e-05  1.0544e-05  3.0611e-06  0:02:43 1384

  iter  continuity  x-velocity  y-velocity  z-velocity      energy           k       omega     time/iter
   617  2.1508e-05  4.5074e-05  3.2386e-05  4.2199e-04  2.1098e-05  1.0378e-05  3.0163e-06  0:02:10 1383
   618  2.1251e-05  4.4461e-05  3.1963e-05  4.2000e-04  2.0845e-05  1.0211e-05  2.9712e-06  0:01:44 1382
   619  2.1000e-05  4.3861e-05  3.1552e-05  4.1772e-04  2.0599e-05  1.0042e-05  2.9264e-06  0:01:23 1381
   620  2.0755e-05  4.3274e-05  3.1154e-05  4.1514e-04  2.0358e-05  9.8756e-06  2.8817e-06  0:01:07 1380
   621  2.0514e-05  4.2702e-05  3.0768e-05  4.1228e-04  2.0121e-05  9.7084e-06  2.8379e-06  0:00:53 1379
   622  2.0278e-05  4.2143e-05  3.0394e-05  4.0914e-04  1.9890e-05  9.5427e-06  2.7940e-06  0:05:18 1378
   623  2.0047e-05  4.1598e-05  3.0030e-05  4.0542e-04  1.9662e-05  9.3798e-06  2.7500e-06  0:04:14 1377
   624  1.9819e-05  4.1067e-05  2.9677e-05  4.0074e-04  1.9439e-05  9.2163e-06  2.7058e-06  0:03:23 1376
   625  1.9596e-05  4.0549e-05  2.9334e-05  3.9578e-04  1.9219e-05  9.0516e-06  2.6616e-06  0:02:43 1375
[...]
  1838  3.7265e-07  2.3372e-06  3.5812e-07  1.3762e-01  3.7140e-07  3.6421e-07  1.0046e-07  0:00:10  162
  1839  3.7021e-07  2.3223e-06  3.5721e-07  1.3699e-01  3.6894e-07  3.6383e-07  1.0022e-07  0:00:08  161
  1840  3.6771e-07  2.3067e-06  3.5626e-07  1.3633e-01  3.6642e-07  3.6338e-07  9.9968e-08  0:00:06  160
  1841  3.6514e-07  2.2907e-06  3.5527e-07  1.3563e-01  3.6383e-07  3.6287e-07  9.9691e-08  0:00:05  159
  1842  3.6252e-07  2.2741e-06  3.5425e-07  1.3490e-01  3.6119e-07  3.6229e-07  9.9394e-08  0:00:35  158
  1843  3.5985e-07  2.2570e-06  3.5318e-07  1.3414e-01  3.5850e-07  3.6165e-07  9.9075e-08  0:00:28  157
  1844  3.5712e-07  2.2395e-06  3.5209e-07  1.3335e-01  3.5575e-07  3.6093e-07  9.8735e-08  0:00:22  156
  1845  3.5434e-07  2.2215e-06  3.5096e-07  1.3252e-01  3.5296e-07  3.6015e-07  9.8375e-08  0:00:18  155
  1846  3.5153e-07  2.2030e-06  3.4979e-07  1.3166e-01  3.5012e-07  3.5933e-07  9.7993e-08  0:00:14  154
  1847  3.4866e-07  2.1841e-06  3.4860e-07  1.3078e-01  3.4724e-07  3.5855e-07  9.7590e-08  0:00:11  153
  1848  3.4577e-07  2.1647e-06  3.4739e-07  1.2986e-01  3.4432e-07  3.5772e-07  9.7164e-08  0:00:09  152

  iter  continuity  x-velocity  y-velocity  z-velocity      energy           k       omega     time/iter
  1849  3.4283e-07  2.1450e-06  3.4615e-07  1.2891e-01  3.4136e-07  3.5683e-07  9.6716e-08  0:00:07  151
  1850  3.3987e-07  2.1249e-06  3.4488e-07  1.2793e-01  3.3837e-07  3.5586e-07  9.6251e-08  0:00:06  150
  1851  3.3687e-07  2.1044e-06  3.4360e-07  1.2692e-01  3.3536e-07  3.5482e-07  9.5766e-08  0:00:04  149
  1852  3.3385e-07  2.0835e-06  3.4229e-07  1.2589e-01  3.3231e-07  3.5385e-07  9.5268e-08  0:00:33  148
  1853  3.3081e-07  2.0623e-06  3.4097e-07  1.2483e-01  3.2925e-07  3.5284e-07  9.4753e-08  0:00:26  147
  1854  3.2775e-07  2.0407e-06  3.3963e-07  1.2375e-01  3.2617e-07  3.5172e-07  9.4219e-08  0:00:21  146
  1855  3.2468e-07  2.0189e-06  3.3827e-07  1.2264e-01  3.2307e-07  3.5050e-07  9.3666e-08  0:00:17  145
  1856  3.2159e-07  1.9967e-06  3.3691e-07  1.2150e-01  3.1996e-07  3.4918e-07  9.3095e-08  0:00:13  144
  1857  3.1849e-07  1.9743e-06  3.3553e-07  1.2035e-01  3.1683e-07  3.4778e-07  9.2505e-08  0:00:10  143
  1858  3.1539e-07  1.9516e-06  3.3414e-07  1.1917e-01  3.1371e-07  3.4630e-07  9.1897e-08  0:00:08  142
  1859  3.1228e-07  1.9287e-06  3.3274e-07  1.1797e-01  3.1057e-07  3.4483e-07  9.1271e-08  0:00:07  141

  iter  continuity  x-velocity  y-velocity  z-velocity      energy           k       omega     time/iter
  1860  3.0917e-07  1.9056e-06  3.3133e-07  1.1675e-01  3.0744e-07  3.4330e-07  9.0628e-08  0:00:05  140
  1861  3.0606e-07  1.8822e-06  3.2991e-07  1.1551e-01  3.0430e-07  3.4169e-07  8.9968e-08  0:00:32  139
  1862  3.0296e-07  1.8587e-06  3.2849e-07  1.1426e-01  3.0117e-07  3.4002e-07  8.9292e-08  0:00:25  138
  1863  2.9986e-07  1.8350e-06  3.2707e-07  1.1298e-01  2.9805e-07  3.3828e-07  8.8600e-08  0:00:20  137
  1864  2.9677e-07  1.8112e-06  3.2564e-07  1.1170e-01  2.9493e-07  3.3648e-07  8.7892e-08  0:00:16  136
  1865  2.9370e-07  1.7872e-06  3.2421e-07  1.1039e-01  2.9183e-07  3.3462e-07  8.7171e-08  0:00:13  135
  1866  2.9064e-07  1.7631e-06  3.2277e-07  1.0908e-01  2.8874e-07  3.3269e-07  8.6435e-08  0:00:10  134
  1867  2.8759e-07  1.7389e-06  3.2134e-07  1.0774e-01  2.8567e-07  3.3071e-07  8.5685e-08  0:00:08  133
  1868  2.8456e-07  1.7147e-06  3.1990e-07  1.0640e-01  2.8262e-07  3.2866e-07  8.4923e-08  0:00:06  132
  1869  2.8155e-07  1.6904e-06  3.1846e-07  1.0505e-01  2.7958e-07  3.2656e-07  8.4147e-08  0:00:05  131
  1870  2.7857e-07  1.6661e-06  3.1702e-07  1.0369e-01  2.7657e-07  3.2440e-07  8.3360e-08  0:00:30  130

  iter  continuity  x-velocity  y-velocity  z-velocity      energy           k       omega     time/iter
  1871  2.7561e-07  1.6417e-06  3.1558e-07  1.0232e-01  2.7358e-07  3.2219e-07  8.2562e-08  0:00:24  129
  1872  2.7267e-07  1.6174e-06  3.1414e-07  1.0094e-01  2.7062e-07  3.1992e-07  8.1753e-08  0:00:19  128
  1873  2.6976e-07  1.5930e-06  3.1270e-07  9.9553e-02  2.6768e-07  3.1760e-07  8.0934e-08  0:00:15  127
  1874  2.6687e-07  1.5687e-06  3.1125e-07  9.8162e-02  2.6477e-07  3.1523e-07  8.0104e-08  0:00:12  126
  1875  2.6402e-07  1.5444e-06  3.0981e-07  9.6767e-02  2.6189e-07  3.1277e-07  7.9265e-08  0:00:09  125
  1876  2.6119e-07  1.5201e-06  3.0837e-07  9.5368e-02  2.5904e-07  3.1021e-07  7.8418e-08  0:00:08  124
  1877  2.5840e-07  1.4959e-06  3.0693e-07  9.3966e-02  2.5622e-07  3.0758e-07  7.7562e-08  0:00:06  123
  1878  2.5564e-07  1.4718e-06  3.0549e-07  9.2563e-02  2.5343e-07  3.0489e-07  7.6698e-08  0:00:05  122
  1879  2.5290e-07  1.4478e-06  3.0404e-07  9.1159e-02  2.5067e-07  3.0215e-07  7.5828e-08  0:00:28  121
  1880  2.5021e-07  1.4240e-06  3.0260e-07  8.9755e-02  2.4795e-07  2.9937e-07  7.4951e-08  0:00:22  120
  1881  2.4754e-07  1.4002e-06  3.0116e-07  8.8352e-02  2.4526e-07  2.9657e-07  7.4068e-08  0:00:18  119

  iter  continuity  x-velocity  y-velocity  z-velocity      energy           k       omega     time/iter
  1882  2.4491e-07  1.3765e-06  2.9971e-07  8.6951e-02  2.4261e-07  2.9373e-07  7.3180e-08  0:00:14  118
  1883  2.4232e-07  1.3530e-06  2.9826e-07  8.5552e-02  2.3999e-07  2.9087e-07  7.2287e-08  0:00:11  117
  1884  2.3975e-07  1.3297e-06  2.9681e-07  8.4157e-02  2.3741e-07  2.8798e-07  7.1391e-08  0:00:09  116
  1885  2.3723e-07  1.3065e-06  2.9536e-07  8.2767e-02  2.3486e-07  2.8507e-07  7.0491e-08  0:00:07  115
  1886  2.3473e-07  1.2835e-06  2.9391e-07  8.1382e-02  2.3234e-07  2.8213e-07  6.9588e-08  0:00:06  114
  1887  2.3227e-07  1.2607e-06  2.9246e-07  8.0003e-02  2.2986e-07  2.7918e-07  6.8682e-08  0:00:04  113
  1888  2.2985e-07  1.2381e-06  2.9100e-07  7.8631e-02  2.2742e-07  2.7620e-07  6.7774e-08  0:00:03  112
  1889  2.2746e-07  1.2157e-06  2.8954e-07  7.7265e-02  2.2500e-07  2.7320e-07  6.6865e-08  0:00:25  111
  1890  2.2510e-07  1.1935e-06  2.8807e-07  7.5907e-02  2.2263e-07  2.7018e-07  6.5955e-08  0:00:20  110
  1891  2.2277e-07  1.1715e-06  2.8660e-07  7.4558e-02  2.2028e-07  2.6714e-07  6.5045e-08  0:00:16  109
  1892  2.2047e-07  1.1497e-06  2.8512e-07  7.3217e-02  2.1797e-07  2.6408e-07  6.4136e-08  0:00:12  108

  iter  continuity  x-velocity  y-velocity  z-velocity      energy           k       omega     time/iter
  1893  2.1821e-07  1.1282e-06  2.8364e-07  7.1886e-02  2.1568e-07  2.6101e-07  6.3227e-08  0:00:10  107
  1894  2.1597e-07  1.1069e-06  2.8215e-07  7.0565e-02  2.1343e-07  2.5793e-07  6.2318e-08  0:00:08  106
  1895  2.1377e-07  1.0859e-06  2.8066e-07  6.9255e-02  2.1121e-07  2.5485e-07  6.1412e-08  0:00:06  105
  1896  2.1159e-07  1.0651e-06  2.7915e-07  6.7956e-02  2.0902e-07  2.5174e-07  6.0507e-08  0:00:05  104
  1897  2.0944e-07  1.0446e-06  2.7764e-07  6.6669e-02  2.0686e-07  2.4863e-07  5.9604e-08  0:00:04  103
  1898  2.0732e-07  1.0243e-06  2.7612e-07  6.5394e-02  2.0472e-07  2.4551e-07  5.8706e-08  0:00:23  102
  1899  2.0522e-07  1.0043e-06  2.7460e-07  6.4132e-02  2.0261e-07  2.4239e-07  5.7810e-08  0:00:19  101
  1900  2.0315e-07  9.8458e-07  2.7306e-07  6.2883e-02  2.0053e-07  2.3926e-07  5.6919e-08  0:00:15  100
  1901  2.0110e-07  9.6513e-07  2.7151e-07  6.1647e-02  1.9847e-07  2.3612e-07  5.6031e-08  0:00:12   99
  1902  1.9907e-07  9.4596e-07  2.6994e-07  6.0425e-02  1.9643e-07  2.3298e-07  5.5148e-08  0:00:09   98
  1903  1.9707e-07  9.2707e-07  2.6837e-07  5.9217e-02  1.9442e-07  2.2984e-07  5.4270e-08  0:00:07   97

  iter  continuity  x-velocity  y-velocity  z-velocity      energy           k       omega     time/iter
  1904  1.9508e-07  9.0847e-07  2.6678e-07  5.8024e-02  1.9243e-07  2.2669e-07  5.3397e-08  0:00:06   96
  1905  1.9312e-07  8.9014e-07  2.6518e-07  5.6845e-02  1.9045e-07  2.2355e-07  5.2529e-08  0:00:05   95
  1906  1.9117e-07  8.7211e-07  2.6357e-07  5.5680e-02  1.8850e-07  2.2041e-07  5.1667e-08  0:00:04   94
  1907  1.8924e-07  8.5436e-07  2.6194e-07  5.4531e-02  1.8657e-07  2.1728e-07  5.0811e-08  0:00:21   93
  1908  1.8732e-07  8.3691e-07  2.6030e-07  5.3397e-02  1.8465e-07  2.1415e-07  4.9963e-08  0:00:17   92
  1909  1.8542e-07  8.1974e-07  2.5864e-07  5.2278e-02  1.8275e-07  2.1102e-07  4.9121e-08  0:00:13   91
  1910  1.8354e-07  8.0286e-07  2.5696e-07  5.1175e-02  1.8086e-07  2.0791e-07  4.8287e-08  0:00:11   90
  1911  1.8167e-07  7.8627e-07  2.5527e-07  5.0088e-02  1.7899e-07  2.0481e-07  4.7461e-08  0:00:08   89
  1912  1.7981e-07  7.6998e-07  2.5356e-07  4.9017e-02  1.7713e-07  2.0171e-07  4.6642e-08  0:00:07   88
  1913  1.7797e-07  7.5397e-07  2.5183e-07  4.7961e-02  1.7529e-07  1.9863e-07  4.5831e-08  0:00:05   87
  1914  1.7613e-07  7.3825e-07  2.5009e-07  4.6921e-02  1.7345e-07  1.9557e-07  4.5028e-08  0:00:04   86

  iter  continuity  x-velocity  y-velocity  z-velocity      energy           k       omega     time/iter
  1915  1.7431e-07  7.2282e-07  2.4833e-07  4.5898e-02  1.7163e-07  1.9253e-07  4.4234e-08  0:00:03   85
  1916  1.7249e-07  7.0768e-07  2.4655e-07  4.4891e-02  1.6982e-07  1.8950e-07  4.3450e-08  0:00:03   84
  1917  1.7069e-07  6.9282e-07  2.4475e-07  4.3900e-02  1.6802e-07  1.8650e-07  4.2676e-08  0:00:19   83
  1918  1.6889e-07  6.7824e-07  2.4293e-07  4.2926e-02  1.6623e-07  1.8351e-07  4.1911e-08  0:00:15   82
  1919  1.6710e-07  6.6395e-07  2.4109e-07  4.1969e-02  1.6444e-07  1.8054e-07  4.1155e-08  0:00:12   81
  1920  1.6532e-07  6.4993e-07  2.3924e-07  4.1028e-02  1.6267e-07  1.7760e-07  4.0409e-08  0:00:09   80
  1921  1.6354e-07  6.3620e-07  2.3736e-07  4.0102e-02  1.6090e-07  1.7468e-07  3.9672e-08  0:00:07   79
  1922  1.6178e-07  6.2273e-07  2.3547e-07  3.9193e-02  1.5914e-07  1.7178e-07  3.8944e-08  0:00:06   78
  1923  1.6001e-07  6.0954e-07  2.3356e-07  3.8299e-02  1.5739e-07  1.6891e-07  3.8225e-08  0:00:05   77
  1924  1.5826e-07  5.9662e-07  2.3163e-07  3.7422e-02  1.5564e-07  1.6606e-07  3.7515e-08  0:00:04   76
  1925  1.5651e-07  5.8396e-07  2.2969e-07  3.6560e-02  1.5390e-07  1.6324e-07  3.6817e-08  0:00:03   75

  iter  continuity  x-velocity  y-velocity  z-velocity      energy           k       omega     time/iter
  1926  1.5476e-07  5.7157e-07  2.2772e-07  3.5713e-02  1.5216e-07  1.6044e-07  3.6128e-08  0:00:02   74
  1927  1.5302e-07  5.5944e-07  2.2574e-07  3.4882e-02  1.5043e-07  1.5767e-07  3.5449e-08  0:00:16   73
  1928  1.5128e-07  5.4756e-07  2.2374e-07  3.4066e-02  1.4871e-07  1.5493e-07  3.4779e-08  0:00:13   72
  1929  1.4955e-07  5.3594e-07  2.2173e-07  3.3265e-02  1.4699e-07  1.5221e-07  3.4119e-08  0:00:10   71
  1930  1.4782e-07  5.2457e-07  2.1970e-07  3.2480e-02  1.4528e-07  1.4952e-07  3.3468e-08  0:00:08   70
  1931  1.4610e-07  5.1345e-07  2.1765e-07  3.1710e-02  1.4357e-07  1.4686e-07  3.2825e-08  0:00:06   69
  1932  1.4438e-07  5.0257e-07  2.1559e-07  3.0954e-02  1.4187e-07  1.4423e-07  3.2192e-08  0:00:05   68
  1933  1.4267e-07  4.9193e-07  2.1351e-07  3.0214e-02  1.4017e-07  1.4162e-07  3.1568e-08  0:00:04   67
  1934  1.4095e-07  4.8152e-07  2.1142e-07  2.9488e-02  1.3847e-07  1.3905e-07  3.0953e-08  0:00:03   66
  1935  1.3925e-07  4.7135e-07  2.0932e-07  2.8777e-02  1.3678e-07  1.3651e-07  3.0347e-08  0:00:02   65
  1936  1.3755e-07  4.6140e-07  2.0720e-07  2.8080e-02  1.3510e-07  1.3400e-07  2.9750e-08  0:00:02   64

  iter  continuity  x-velocity  y-velocity  z-velocity      energy           k       omega     time/iter
  1937  1.3585e-07  4.5168e-07  2.0508e-07  2.7398e-02  1.3342e-07  1.3152e-07  2.9165e-08  0:00:14   63
  1938  1.3416e-07  4.4218e-07  2.0294e-07  2.6729e-02  1.3174e-07  1.2907e-07  2.8589e-08  0:00:11   62
  1939  1.3247e-07  4.3290e-07  2.0079e-07  2.6075e-02  1.3007e-07  1.2665e-07  2.8022e-08  0:00:09   61
  1940  1.3078e-07  4.2383e-07  1.9862e-07  2.5435e-02  1.2841e-07  1.2427e-07  2.7465e-08  0:00:07   60
  1941  1.2910e-07  4.1497e-07  1.9645e-07  2.4808e-02  1.2675e-07  1.2192e-07  2.6916e-08  0:00:05   59
  1942  1.2743e-07  4.0631e-07  1.9428e-07  2.4194e-02  1.2509e-07  1.1960e-07  2.6377e-08  0:00:04   58
  1943  1.2576e-07  3.9786e-07  1.9209e-07  2.3594e-02  1.2344e-07  1.1732e-07  2.5846e-08  0:00:03   57
  1944  1.2410e-07  3.8960e-07  1.8990e-07  2.3006e-02  1.2180e-07  1.1507e-07  2.5323e-08  0:00:03   56
  1945  1.2244e-07  3.8154e-07  1.8770e-07  2.2432e-02  1.2016e-07  1.1286e-07  2.4810e-08  0:00:02   55
  1946  1.2079e-07  3.7367e-07  1.8549e-07  2.1870e-02  1.1853e-07  1.1069e-07  2.4306e-08  0:00:02   54
  1947  1.1914e-07  3.6598e-07  1.8328e-07  2.1320e-02  1.1691e-07  1.0854e-07  2.3810e-08  0:00:12   53

  iter  continuity  x-velocity  y-velocity  z-velocity      energy           k       omega     time/iter
  1948  1.1750e-07  3.5848e-07  1.8107e-07  2.0782e-02  1.1529e-07  1.0643e-07  2.3322e-08  0:00:09   52
  1949  1.1587e-07  3.5115e-07  1.7885e-07  2.0257e-02  1.1368e-07  1.0436e-07  2.2843e-08  0:00:07   51
  1950  1.1424e-07  3.4400e-07  1.7663e-07  1.9743e-02  1.1208e-07  1.0234e-07  2.2371e-08  0:00:06   50
  1951  1.1263e-07  3.3702e-07  1.7441e-07  1.9241e-02  1.1049e-07  1.0036e-07  2.1908e-08  0:00:04   49
  1952  1.1102e-07  3.3020e-07  1.7219e-07  1.8750e-02  1.0890e-07  9.8414e-08  2.1453e-08  0:00:04   48
  1953  1.0942e-07  3.2356e-07  1.6997e-07  1.8271e-02  1.0732e-07  9.6499e-08  2.1007e-08  0:00:03   47
  1954  1.0782e-07  3.1707e-07  1.6775e-07  1.7803e-02  1.0575e-07  9.4615e-08  2.0569e-08  0:00:02   46
  1955  1.0624e-07  3.1073e-07  1.6553e-07  1.7345e-02  1.0419e-07  9.2760e-08  2.0139e-08  0:00:02   45
  1956  1.0467e-07  3.0455e-07  1.6331e-07  1.6898e-02  1.0264e-07  9.0941e-08  1.9717e-08  0:00:01   44
  1957  1.0310e-07  2.9852e-07  1.6110e-07  1.6461e-02  1.0110e-07  8.9160e-08  1.9302e-08  0:00:01   43
  1958  1.0155e-07  2.9264e-07  1.5890e-07  1.6035e-02  9.9570e-08  8.7409e-08  1.8894e-08  0:00:09   42

  iter  continuity  x-velocity  y-velocity  z-velocity      energy           k       omega     time/iter
  1959  1.0000e-07  2.8689e-07  1.5669e-07  1.5618e-02  9.8050e-08  8.5693e-08  1.8493e-08  0:00:07   41
  1960  9.8472e-08  2.8129e-07  1.5450e-07  1.5211e-02  9.6541e-08  8.4012e-08  1.8101e-08  0:00:06   40
  1961  9.6951e-08  2.7582e-07  1.5231e-07  1.4813e-02  9.5044e-08  8.2361e-08  1.7715e-08  0:00:04   39
  1962  9.5441e-08  2.7049e-07  1.5013e-07  1.4425e-02  9.3559e-08  8.0746e-08  1.7336e-08  0:00:03   38
  1963  9.3944e-08  2.6529e-07  1.4796e-07  1.4046e-02  9.2085e-08  7.9166e-08  1.6964e-08  0:00:03   37
  1964  9.2459e-08  2.6021e-07  1.4580e-07  1.3677e-02  9.0624e-08  7.7618e-08  1.6600e-08  0:00:02   36
  1965  9.0987e-08  2.5526e-07  1.4365e-07  1.3317e-02  8.9176e-08  7.6095e-08  1.6243e-08  0:00:02   35
  1966  8.9528e-08  2.5043e-07  1.4150e-07  1.2965e-02  8.7741e-08  7.4597e-08  1.5893e-08  0:00:01   34
  1967  8.8083e-08  2.4571e-07  1.3938e-07  1.2622e-02  8.6320e-08  7.3126e-08  1.5550e-08  0:00:01   33
  1968  8.6651e-08  2.4111e-07  1.3726e-07  1.2287e-02  8.4912e-08  7.1682e-08  1.5215e-08  0:00:07   32
  1969  8.5234e-08  2.3663e-07  1.3516e-07  1.1961e-02  8.3519e-08  7.0264e-08  1.4888e-08  0:00:06   31

  iter  continuity  x-velocity  y-velocity  z-velocity      energy           k       omega     time/iter
  1970  8.3831e-08  2.3225e-07  1.3307e-07  1.1643e-02  8.2140e-08  6.8873e-08  1.4568e-08  0:00:04   30
  1971  8.2443e-08  2.2799e-07  1.3099e-07  1.1332e-02  8.0776e-08  6.7507e-08  1.4255e-08  0:00:03   29
  1972  8.1070e-08  2.2382e-07  1.2894e-07  1.1030e-02  7.9427e-08  6.6165e-08  1.3949e-08  0:00:03   28
  1973  7.9713e-08  2.1976e-07  1.2690e-07  1.0734e-02  7.8093e-08  6.4847e-08  1.3650e-08  0:00:02   27
  1974  7.8371e-08  2.1580e-07  1.2487e-07  1.0447e-02  7.6775e-08  6.3555e-08  1.3358e-08  0:00:02   26
  1975  7.7045e-08  2.1194e-07  1.2286e-07  1.0166e-02  7.5472e-08  6.2299e-08  1.3072e-08  0:00:06   25
  1976  7.5735e-08  2.0817e-07  1.2087e-07  9.8926e-03  7.4185e-08  6.1075e-08  1.2792e-08  0:00:05   24
  1977  7.4442e-08  2.0449e-07  1.1890e-07  9.6260e-03  7.2915e-08  5.9874e-08  1.2517e-08  0:00:04   23
  1978  7.3165e-08  2.0091e-07  1.1695e-07  9.3662e-03  7.1660e-08  5.8696e-08  1.2247e-08  0:00:03   22
  1979  7.1904e-08  1.9741e-07  1.1502e-07  9.1130e-03  7.0423e-08  5.7546e-08  1.1983e-08  0:00:02   21
  1980  7.0661e-08  1.9401e-07  1.1311e-07  8.8662e-03  6.9202e-08  5.6417e-08  1.1724e-08  0:00:02   20

  iter  continuity  x-velocity  y-velocity  z-velocity      energy           k       omega     time/iter
  1981  6.9434e-08  1.9068e-07  1.1122e-07  8.6257e-03  6.7998e-08  5.5309e-08  1.1470e-08  0:00:01   19
  1982  6.8225e-08  1.8744e-07  1.0935e-07  8.3913e-03  6.6811e-08  5.4221e-08  1.1222e-08  0:00:01   18
  1983  6.7033e-08  1.8428e-07  1.0751e-07  8.1630e-03  6.5641e-08  5.3160e-08  1.0979e-08  0:00:01   17
  1984  6.5858e-08  1.8120e-07  1.0568e-07  7.9406e-03  6.4488e-08  5.2117e-08  1.0741e-08  0:00:01   16
  1985  6.4701e-08  1.7819e-07  1.0388e-07  7.7239e-03  6.3352e-08  5.1091e-08  1.0508e-08  0:00:03   15
  1986  6.3562e-08  1.7526e-07  1.0210e-07  7.5128e-03  6.2234e-08  5.0082e-08  1.0279e-08  0:00:03   14
  1987  6.2440e-08  1.7240e-07  1.0034e-07  7.3072e-03  6.1133e-08  4.9089e-08  1.0056e-08  0:00:02   13
  1988  6.1336e-08  1.6962e-07  9.8610e-08  7.1069e-03  6.0050e-08  4.8112e-08  9.8383e-09  0:00:01   12
  1989  6.0249e-08  1.6690e-07  9.6900e-08  6.9119e-03  5.8985e-08  4.7152e-08  9.6242e-09  0:00:01   11
  1990  5.9181e-08  1.6425e-07  9.5215e-08  6.7219e-03  5.7936e-08  4.6207e-08  9.4139e-09  0:00:01   10
  1991  5.8130e-08  1.6167e-07  9.3553e-08  6.5369e-03  5.6906e-08  4.5276e-08  9.2086e-09  0:00:01    9

  iter  continuity  x-velocity  y-velocity  z-velocity      energy           k       omega     time/iter
  1992  5.7097e-08  1.5915e-07  9.1916e-08  6.3568e-03  5.5893e-08  4.4360e-08  9.0070e-09  0:00:00    8
  1993  5.6082e-08  1.5670e-07  9.0304e-08  6.1813e-03  5.4898e-08  4.3459e-08  8.8094e-09  0:00:00    7
  1994  5.5085e-08  1.5431e-07  8.8716e-08  6.0105e-03  5.3920e-08  4.2574e-08  8.6164e-09  0:00:00    6
  1995  5.4106e-08  1.5198e-07  8.7152e-08  5.8443e-03  5.2960e-08  4.1704e-08  8.4276e-09  0:00:01    5
  1996  5.3144e-08  1.4971e-07  8.5614e-08  5.6824e-03  5.2017e-08  4.0846e-08  8.2433e-09  0:00:01    4
  1997  5.2200e-08  1.4749e-07  8.4100e-08  5.5248e-03  5.1092e-08  4.0001e-08  8.0629e-09  0:00:00    3
  1998  5.1274e-08  1.4533e-07  8.2612e-08  5.3714e-03  5.0184e-08  3.9172e-08  7.8866e-09  0:00:00    2
  1999  5.0365e-08  1.4323e-07  8.1148e-08  5.2220e-03  4.9293e-08  3.8354e-08  7.7135e-09  0:00:00    1
  2000  4.9474e-08  1.4118e-07  7.9709e-08  5.0767e-03  4.8420e-08  3.7549e-08  7.5434e-09  0:00:00    0

> 
adjoint/                parallel/               server/
define/                 parametric-study/       solve/
display/                plot/                   surface/
exit                    preferences/            turbo-workflow/
file/                   print-license-usage     views/
mesh/                   report/

> /file/write-case-data project1
Fast-loading "C:\PROGRA~1\ANSYSI~1\v231\fluent\fluent23.1.0\\addons\afd\lib\hdfio.bin"
Done.

Writing to Engs-30669:"C:\Users\kebl7595\Desktop\CFD\Runs\Viscous\coarse\project1.cas.h5" in NODE0 mode and compression level 1 ...
       10200 cells,     1 zone  ...
       34348 faces,     8 zones ...
       14064 nodes,     1 zone  ...
  Done.
Done.

Writing to Engs-30669:"C:\Users\kebl7595\Desktop\CFD\Runs\Viscous\coarse\project1.dat.h5" in NODE0 mode and compression level 1 ...
  Writing results.
Done.

> /file/export/ascii "./surface.dat" wing te () no pressure mach-number quit no

Writing "./surface.dat"...

Writing information to ascii file ...
Done.


> /plot/plot y "pressuredata.dat" no n n pressure-coefficient no n x-coordinate wing ()

> /plot/plot y "frictiondata.dat" no n n skin-friction-coef no n x-coordinate wing ()

> /exit

Posting ANSYS Product Improvement Program performance data 
Done.
Auto-Transcript Stop Time:  10:18:45, 21 May 2024 GMT Daylight Time 
Total Transcript Time: 3 Minute 36 Second.
