Auto-Transcript Start Time:  13:57:05, 21 May 2024 GMT Daylight Time 
Current Directory: "C:\Users\kebl7595\Desktop\CFD\Runs\Viscous\Mach 0.3\12 degrees"

              Welcome to ANSYS Fluent 2023 R1

              Copyright 1987-2023 ANSYS, Inc. All Rights Reserved.
              Unauthorized use, distribution or duplication is prohibited.
              This product is subject to U.S. laws governing export and re-export.
              For full Legal Notice, see documentation.

Build Time: Nov 28 2022 09:52:02 EST  Build Id: 10208  
 
Connected License Server List:	1055@ansyslic.eng.ox.ac.uk

*********************************************
Info: Your license enables 4-way parallel execution.
For faster simulations, please start the application with the appropriate parallel options.
*********************************************


     --------------------------------------------------------------
     This is an academic version of ANSYS FLUENT. Usage of this product
     license is limited to the terms and conditions specified in your ANSYS
     license form, additional terms section.
     --------------------------------------------------------------
Host spawning Node 0 on machine "Engs-30669" (win64).

------------------------------------------------------------------------------------
ID    Hostname    Core  O.S.         PID    Vendor                                 
------------------------------------------------------------------------------------
n0    Engs-30669  1/32  Windows-x64  48660  13th Gen Intel(R) Core(TM) i9-13900    
host  Engs-30669        Windows-x64  15276  13th Gen Intel(R) Core(TM) i9-13900    

MPI Option Selected: intel
------------------------------------------------------------------------------------

Cleanup script file is C:\\Users\\kebl7595\\Desktop\\CFD\\Runs\\Viscous\\Mach 0.3\\12 degrees\\cleanup-fluent-Engs-30669-15276.bat
QA Service Message :
QA Services Agreement Enabled. This application is included in the scope of an ANSYS QA Services Agreement.
Posting ANSYS Product Improvement Program startup data
Done.

Reading journal file C:/Users/kebl7595/Desktop/CFD/Runs/Viscous/Mach 0.3/12 degrees/project1.jou...

> /file/set-batch-options no no no 

> 
define/                 parametric-study/       solve/
display/                plot/                   surface/
exit                    preferences/            switch-to-meshing-mode
file/                   print-license-usage     turbo-workflow/
mesh/                   report/                 views/
parallel/               server/

> /file/import/cgns/mesh  "./project1.cgns"
Engs-30669 has other FLUENT parallel processes running.                       Process affinity not being set.

Importing "./project1.cgns"

Opening library "C:\\PROGRA~1\\ANSYSI~1\\v231\\fluent\\fluent23.1.0\\vki\\win64\\devtools4.4.6.dll"... done.

Read    17864 nodes
   12996 hexahedral cells, zone  1
    9462 quadrilateral wall faces, zone  2.
   33972 quadrilateral interior faces, zone  3.
     282 quadrilateral interface faces, zone  4.
       6 quadrilateral wall faces, zone  5.

Building...
     mesh
     materials,
     interface,
     domains,
     zones,
	default_exterior-1
	interface-default_subface
	default_interior-1
	default_subface
	default
     parallel,
The automatic selection for flux type has changed to Rhie-Chow: momentum based.

Done.


> 
adjoint/                parallel/               server/
define/                 parametric-study/       solve/
display/                plot/                   surface/
exit                    preferences/            turbo-workflow/
file/                   print-license-usage     views/
mesh/                   report/

> /define/models/solver/density-based-implicit yes

> 
adjoint/                parallel/               server/
define/                 parametric-study/       solve/
display/                plot/                   surface/
exit                    preferences/            turbo-workflow/
file/                   print-license-usage     views/
mesh/                   report/

> /define/models/energy? yes yes invalid command [yes]
yes

> /define/models/viscous/kw-standard? yes

> 
adjoint/                parallel/               server/
define/                 parametric-study/       solve/
display/                plot/                   surface/
exit                    preferences/            turbo-workflow/
file/                   print-license-usage     views/
mesh/                   report/

> /define/materials/change-create air air air is a fluid
yes 
Density
ideal-gas no data required.

no no no no no no

> 
adjoint/                parallel/               server/
define/                 parametric-study/       solve/
display/                plot/                   surface/
exit                    preferences/            turbo-workflow/
file/                   print-license-usage     views/
mesh/                   report/

> /mesh/modify-zones/sep-face-zone-angle 2 90 yes

 4332 faces in contiguous region 0
 228 faces in contiguous region 1
 342 faces in contiguous region 2
 4332 faces in contiguous region 3
 228 faces in contiguous region 4
 Separates zone 2 into 5 zone(s).
Updating new zone information...
   created new zone default_subface:010 from default_subface
   created new zone default_subface:009 from default_subface
   created new zone default_subface:008 from default_subface
   created new zone default_subface:007 from default_subface
done.

> 
adjoint/                parallel/               server/
define/                 parametric-study/       solve/
display/                plot/                   surface/
exit                    preferences/            turbo-workflow/
file/                   print-license-usage     views/
mesh/                   report/

> /define/boundary-conditions/zone-name  5   te

> /define/boundary-conditions/zone-name  7 wing

> /define/boundary-conditions/zone-name  2 sym1

> /define/boundary-conditions/zone-name  9 sym2

> 
adjoint/                parallel/               server/
define/                 parametric-study/       solve/
display/                plot/                   surface/
exit                    preferences/            turbo-workflow/
file/                   print-license-usage     views/
mesh/                   report/

> /define/boundary-conditions/zone-name  8 far1

> /define/boundary-conditions/zone-name 10 far2

> 
adjoint/                parallel/               server/
define/                 parametric-study/       solve/
display/                plot/                   surface/
exit                    preferences/            turbo-workflow/
file/                   print-license-usage     views/
mesh/                   report/

> /define/boundary-conditions/zone-type  8 pressure-far-field

> /define/boundary-conditions/zone-type 10 pressure-far-field

> /define/boundary-conditions/zone-type  2 symmetry

> /define/boundary-conditions/zone-type  9 symmetry

> 
adjoint/                parallel/               server/
define/                 parametric-study/       solve/
display/                plot/                   surface/
exit                    preferences/            turbo-workflow/
file/                   print-license-usage     views/
mesh/                   report/

> /define/boundary-conditions/pressure-far-field (far2 far1)
far1 no 0 no 0.3 no 300 yes no 0.97815 no 0.20791 no 0. no yes 5 0.02

> /define/boundary-conditions/pressure-far-field (far2 far1)
far2 no 0 no 0.3 no 300 yes no 0.97815 no 0.20791 no 0. no yes 5 0.02

> 
adjoint/                parallel/               server/
define/                 parametric-study/       solve/
display/                plot/                   surface/
exit                    preferences/            turbo-workflow/
file/                   print-license-usage     views/
mesh/                   report/

> /solve/initialize/compute-defaults/pressure-far-field (far2 far1)
far1

> /solve/initialize/initialize-flow

> 
adjoint/                parallel/               server/
define/                 parametric-study/       solve/
display/                plot/                   surface/
exit                    preferences/            turbo-workflow/
file/                   print-license-usage     views/
mesh/                   report/

> /solve/monitors/residual/convergence-criteria 1.e-9 1.e-9 1.e-9 1.e-9 1.e-9 1.e-9 1.e-9

> /solve/iterate 2000

  iter  continuity  x-velocity  y-velocity  z-velocity      energy           k       omega     time/iter
     1  1.0000e+00  1.0000e+00  1.0000e+00  1.0000e+00  1.0000e+00  1.6989e-01  1.2579e-01  0:00:00 1999
     2  4.9630e-01  4.1894e-01  4.4939e-01  1.0000e+00  5.0122e-01  1.3048e-01  1.0067e-01  0:00:00 1998
     3  2.7455e-01  2.1916e-01  2.3128e-01  8.9756e-01  2.7599e-01  1.0357e-01  8.3137e-02  0:33:17 1997
     4  1.8010e-01  1.6180e-01  1.4553e-01  5.9137e-01  1.8057e-01  8.4904e-02  6.9992e-02  0:26:37 1996
     5  1.3541e-01  1.2360e-01  9.9386e-02  9.3280e-01  1.3595e-01  7.2455e-02  6.0133e-02  0:21:17 1995
     6  1.1313e-01  8.9968e-02  7.0597e-02  1.1593e+00  1.1408e-01  6.2983e-02  5.2905e-02  0:17:01 1994
     7  9.9403e-02  6.7163e-02  5.2379e-02  1.0689e+00  1.0071e-01  5.5361e-02  4.7174e-02  0:13:36 1993
     8  8.7926e-02  5.1826e-02  4.0955e-02  9.1109e-01  8.9376e-02  4.9064e-02  4.2390e-02  0:10:53 1992
     9  7.8040e-02  4.1809e-02  3.3622e-02  7.9445e-01  7.9476e-02  4.3855e-02  3.8332e-02  0:08:42 1991
    10  6.9648e-02  3.5350e-02  2.8630e-02  7.4503e-01  7.0974e-02  3.9505e-02  3.4868e-02  0:06:57 1990
    11  6.2840e-02  3.1244e-02  2.4894e-02  7.6292e-01  6.4017e-02  3.5897e-02  3.1886e-02  0:05:34 1989

  iter  continuity  x-velocity  y-velocity  z-velocity      energy           k       omega     time/iter
    12  5.7563e-02  2.8880e-02  2.1975e-02  8.7209e-01  5.8584e-02  3.2862e-02  2.9310e-02  0:04:27 1988
    13  5.3766e-02  2.7741e-02  1.9663e-02  1.1105e+00  5.4644e-02  3.0261e-02  2.7102e-02  0:10:11 1987
    14  5.1288e-02  2.7414e-02  1.7917e-02  1.4863e+00  5.2042e-02  2.8004e-02  2.5170e-02  0:08:08 1986
    15  4.9926e-02  2.7585e-02  1.6655e-02  1.9927e+00  5.0573e-02  2.6030e-02  2.3456e-02  0:06:30 1985
    16  4.9457e-02  2.8207e-02  1.5837e-02  2.6228e+00  5.0010e-02  2.4301e-02  2.1933e-02  0:05:12 1984
    17  4.9673e-02  2.9223e-02  1.5380e-02  3.3649e+00  5.0144e-02  2.2787e-02  2.0590e-02  0:04:10 1983
    18  5.0381e-02  3.0508e-02  1.5220e-02  4.1994e+00  5.0773e-02  2.1437e-02  1.9380e-02  0:03:20 1982
    19  5.1416e-02  3.1930e-02  1.5217e-02  5.0960e+00  5.1730e-02  2.0229e-02  1.8282e-02  0:02:40 1981
    20  5.2630e-02  3.3287e-02  1.5380e-02  6.0163e+00  5.2863e-02  1.9145e-02  1.7287e-02  0:08:44 1980
    21  5.3889e-02  3.4575e-02  1.5631e-02  6.9159e+00  5.4033e-02  1.8163e-02  1.6385e-02  0:06:59 1979
    22  5.5037e-02  3.5608e-02  1.5981e-02  7.7468e+00  5.5082e-02  1.7264e-02  1.5561e-02  0:05:35 1978

  iter  continuity  x-velocity  y-velocity  z-velocity      energy           k       omega     time/iter
    23  5.5970e-02  3.6375e-02  1.6411e-02  8.4616e+00  5.5905e-02  1.6449e-02  1.4806e-02  0:04:28 1977
    24  5.6604e-02  3.6928e-02  1.6890e-02  9.0168e+00  5.6419e-02  1.5709e-02  1.4116e-02  0:03:34 1976
    25  5.6873e-02  3.7200e-02  1.7430e-02  9.3718e+00  5.6560e-02  1.5022e-02  1.3485e-02  0:02:51 1975
    26  5.6740e-02  3.7264e-02  1.7994e-02  9.4958e+00  5.6293e-02  1.4382e-02  1.2909e-02  0:02:17 1974
    27  5.6170e-02  3.7111e-02  1.8448e-02  9.3792e+00  5.5587e-02  1.3787e-02  1.2367e-02  0:01:49 1973
    28  5.5202e-02  3.6873e-02  1.8913e-02  9.0170e+00  5.4483e-02  1.3234e-02  1.1864e-02  0:01:27 1972
    29  5.3839e-02  3.6588e-02  1.9313e-02  8.4516e+00  5.2987e-02  1.2719e-02  1.1399e-02  0:07:44 1971
    30  5.2115e-02  3.6206e-02  1.9707e-02  7.7179e+00  5.1137e-02  1.2238e-02  1.0960e-02  0:06:11 1970
    31  5.0038e-02  3.5568e-02  2.0191e-02  6.8741e+00  4.8941e-02  1.1784e-02  1.0549e-02  0:04:57 1969
    32  4.7678e-02  3.5252e-02  2.0640e-02  6.0343e+00  4.6473e-02  1.1360e-02  1.0155e-02  0:03:57 1968
    33  4.5086e-02  3.5139e-02  2.1162e-02  5.3076e+00  4.3785e-02  1.0965e-02  9.7819e-03  0:03:10 1967

  iter  continuity  x-velocity  y-velocity  z-velocity      energy           k       omega     time/iter
    34  4.2324e-02  3.5197e-02  2.1805e-02  4.8676e+00  4.0939e-02  1.0595e-02  9.4359e-03  0:02:32 1966
    35  3.9427e-02  3.5328e-02  2.2538e-02  4.8468e+00  3.7972e-02  1.0245e-02  9.1100e-03  0:02:01 1965
    36  3.6438e-02  3.5572e-02  2.3360e-02  5.2027e+00  3.4924e-02  9.9185e-03  8.7914e-03  0:01:37 1964
    37  3.3419e-02  3.5943e-02  2.4341e-02  5.8195e+00  3.1860e-02  9.6126e-03  8.4786e-03  0:01:18 1963
    38  3.0407e-02  3.6364e-02  2.5385e-02  6.5722e+00  2.8813e-02  9.3190e-03  8.1888e-03  0:01:02 1962
    39  2.7445e-02  3.6772e-02  2.6559e-02  7.3310e+00  2.5825e-02  9.0498e-03  7.9032e-03  0:07:22 1961
    40  2.4569e-02  3.7188e-02  2.7773e-02  8.0253e+00  2.2931e-02  8.8053e-03  7.6274e-03  0:05:53 1960
    41  2.1822e-02  3.7626e-02  2.8971e-02  8.6089e+00  2.0174e-02  8.5710e-03  7.3739e-03  0:04:42 1959
    42  1.9241e-02  3.8057e-02  3.0122e-02  9.0762e+00  1.7590e-02  8.3485e-03  7.1462e-03  0:03:46 1958
    43  1.6863e-02  3.8437e-02  3.1206e-02  9.4282e+00  1.5217e-02  8.1439e-03  6.9262e-03  0:03:01 1957
    44  1.4722e-02  3.8734e-02  3.2195e-02  9.6687e+00  1.3095e-02  7.9473e-03  6.7077e-03  0:02:24 1956

  iter  continuity  x-velocity  y-velocity  z-velocity      energy           k       omega     time/iter
    45  1.2861e-02  3.8875e-02  3.3055e-02  9.7873e+00  1.1268e-02  7.7455e-03  6.5013e-03  0:01:55 1955
    46  1.1288e-02  3.8842e-02  3.3777e-02  9.7959e+00  9.7544e-03  7.5479e-03  6.3039e-03  0:01:32 1954
    47  1.0029e-02  3.8744e-02  3.4318e-02  9.6633e+00  8.5860e-03  7.3678e-03  6.1054e-03  0:01:14 1953
    48  9.1009e-03  3.8577e-02  3.4641e-02  9.4384e+00  7.7911e-03  7.1942e-03  5.9032e-03  0:07:29 1952
    49  8.5104e-03  3.8395e-02  3.4782e-02  9.1052e+00  7.3751e-03  7.0211e-03  5.7028e-03  0:05:59 1951
    50  8.2555e-03  3.8006e-02  3.4836e-02  8.6626e+00  7.3216e-03  6.8496e-03  5.5123e-03  0:04:47 1950
    51  8.2577e-03  3.7578e-02  3.4756e-02  8.1238e+00  7.5229e-03  6.6791e-03  5.3116e-03  0:03:50 1949
    52  8.4422e-03  3.7177e-02  3.4537e-02  7.4990e+00  7.8862e-03  6.5016e-03  5.1075e-03  0:03:04 1948
    53  8.7420e-03  3.6731e-02  3.4218e-02  6.8191e+00  8.3378e-03  6.3260e-03  4.9196e-03  0:02:27 1947
    54  9.1003e-03  3.6344e-02  3.3793e-02  6.1095e+00  8.8201e-03  6.1513e-03  4.7283e-03  0:01:57 1946
    55  9.4789e-03  3.6020e-02  3.3269e-02  5.4185e+00  9.2994e-03  5.9845e-03  4.5385e-03  0:01:34 1945

  iter  continuity  x-velocity  y-velocity  z-velocity      energy           k       omega     time/iter
    56  9.8474e-03  3.5737e-02  3.2660e-02  4.8390e+00  9.7495e-03  5.8281e-03  4.3554e-03  0:01:15 1944
    57  1.0195e-02  3.5479e-02  3.1989e-02  4.4721e+00  1.0164e-02  5.6778e-03  4.1762e-03  0:01:00 1943
    58  1.0518e-02  3.5241e-02  3.1269e-02  4.3259e+00  1.0544e-02  5.5733e-03  4.0216e-03  0:00:48 1942
    59  1.0813e-02  3.5038e-02  3.0502e-02  4.4643e+00  1.0885e-02  5.5355e-03  3.9165e-03  0:07:07 1941
    60  1.1076e-02  3.4860e-02  2.9702e-02  4.8284e+00  1.1186e-02  5.5236e-03  3.8303e-03  0:05:41 1940
    61  1.1306e-02  3.4693e-02  2.8880e-02  5.3821e+00  1.1449e-02  5.5298e-03  3.7447e-03  0:04:33 1939
    62  1.1503e-02  3.4547e-02  2.8030e-02  6.0512e+00  1.1673e-02  5.5400e-03  3.6543e-03  0:03:38 1938
    63  1.1660e-02  3.4357e-02  2.7154e-02  6.7506e+00  1.1850e-02  5.5511e-03  3.5685e-03  0:02:54 1937
    64  1.1779e-02  3.4110e-02  2.6254e-02  7.4049e+00  1.1984e-02  5.5679e-03  3.4955e-03  0:02:19 1936
    65  1.1858e-02  3.3804e-02  2.5335e-02  7.9777e+00  1.2074e-02  5.6032e-03  3.4317e-03  0:01:51 1935
    66  1.1895e-02  3.3479e-02  2.4391e-02  8.4366e+00  1.2116e-02  5.6464e-03  3.3712e-03  0:01:29 1934

  iter  continuity  x-velocity  y-velocity  z-velocity      energy           k       omega     time/iter
    67  1.1891e-02  3.3117e-02  2.3424e-02  8.7906e+00  1.2113e-02  5.6808e-03  3.3138e-03  0:01:11 1933
    68  1.1844e-02  3.2710e-02  2.2439e-02  9.0050e+00  1.2063e-02  5.7070e-03  3.2629e-03  0:00:57 1932
    69  1.1753e-02  3.2250e-02  2.1437e-02  9.0189e+00  1.1966e-02  5.7287e-03  3.2161e-03  0:07:12 1931
    70  1.1616e-02  3.1718e-02  2.0433e-02  8.9159e+00  1.1819e-02  5.7382e-03  3.1723e-03  0:05:45 1930
    71  1.1432e-02  3.1114e-02  1.9426e-02  8.7297e+00  1.1620e-02  5.7374e-03  3.1243e-03  0:04:36 1929
    72  1.1193e-02  3.0377e-02  1.8441e-02  8.4684e+00  1.1365e-02  5.7345e-03  3.0792e-03  0:03:41 1928
    73  1.0900e-02  2.9575e-02  1.7444e-02  8.1294e+00  1.1054e-02  5.7293e-03  3.0359e-03  0:02:56 1927
    74  1.0551e-02  2.8713e-02  1.6444e-02  7.7098e+00  1.0683e-02  5.7137e-03  2.9907e-03  0:02:21 1926
    75  1.0149e-02  2.7751e-02  1.5446e-02  7.2184e+00  1.0259e-02  5.6914e-03  2.9426e-03  0:01:53 1925
    76  9.7093e-03  2.6785e-02  1.4471e-02  6.6662e+00  9.7942e-03  5.6609e-03  2.8926e-03  0:01:30 1924
    77  9.2320e-03  2.5813e-02  1.3522e-02  6.1003e+00  9.2912e-03  5.6199e-03  2.8406e-03  0:01:12 1923

  iter  continuity  x-velocity  y-velocity  z-velocity      energy           k       omega     time/iter
    78  8.7144e-03  2.4830e-02  1.2595e-02  5.5266e+00  8.7474e-03  5.5756e-03  2.7879e-03  0:00:58 1922
    79  8.1934e-03  2.3915e-02  1.1715e-02  5.0008e+00  8.1995e-03  5.5283e-03  2.7259e-03  0:07:10 1921
    80  7.6833e-03  2.3039e-02  1.0882e-02  4.5661e+00  7.6618e-03  5.4767e-03  2.6634e-03  0:05:44 1920
    81  7.1988e-03  2.2220e-02  1.0085e-02  4.2574e+00  7.1492e-03  5.4273e-03  2.6155e-03  0:04:35 1919
    82  6.7649e-03  2.1301e-02  9.3727e-03  4.1156e+00  6.6877e-03  5.3738e-03  2.5712e-03  0:03:40 1918
    83  6.4173e-03  2.0360e-02  8.7181e-03  4.1303e+00  6.3135e-03  5.3242e-03  2.5210e-03  0:02:56 1917
    84  6.2178e-03  1.9640e-02  8.1150e-03  4.2682e+00  6.0887e-03  5.2753e-03  2.4777e-03  0:02:21 1916
    85  6.1894e-03  1.9091e-02  7.5400e-03  4.5090e+00  6.0381e-03  5.2232e-03  2.4392e-03  0:01:52 1915
    86  6.3485e-03  1.8667e-02  7.0370e-03  4.8100e+00  6.1792e-03  5.1746e-03  2.3962e-03  0:01:30 1914
    87  6.6908e-03  1.8334e-02  6.6205e-03  5.1284e+00  6.5060e-03  5.1445e-03  2.3720e-03  0:01:12 1913
    88  7.1899e-03  1.8140e-02  6.2968e-03  5.4256e+00  6.9910e-03  5.1340e-03  2.3628e-03  0:07:20 1912

  iter  continuity  x-velocity  y-velocity  z-velocity      energy           k       omega     time/iter
    89  7.8104e-03  1.8051e-02  6.0802e-03  5.6794e+00  7.5971e-03  5.1368e-03  2.3470e-03  0:05:52 1911
    90  8.5160e-03  1.8024e-02  5.9693e-03  5.8729e+00  8.2858e-03  5.1423e-03  2.3290e-03  0:04:41 1910
    91  9.2759e-03  1.8117e-02  5.9656e-03  5.9974e+00  9.0260e-03  5.1556e-03  2.3046e-03  0:03:45 1909
    92  1.0060e-02  1.8156e-02  6.1029e-03  6.0604e+00  9.7863e-03  5.1747e-03  2.2817e-03  0:03:00 1908
    93  1.0832e-02  1.8133e-02  6.3296e-03  6.0471e+00  1.0531e-02  5.2127e-03  2.2613e-03  0:02:24 1907
    94  1.1588e-02  1.8126e-02  6.6185e-03  5.9590e+00  1.1256e-02  5.2479e-03  2.2492e-03  0:01:55 1906
    95  1.2300e-02  1.8074e-02  6.9265e-03  5.8166e+00  1.1933e-02  5.3001e-03  2.2326e-03  0:01:32 1905
    96  1.2957e-02  1.7920e-02  7.2887e-03  5.6095e+00  1.2552e-02  5.3669e-03  2.2118e-03  0:01:13 1904
    97  1.3549e-02  1.7673e-02  7.6866e-03  5.3624e+00  1.3103e-02  5.4552e-03  2.1953e-03  0:07:19 1903
    98  1.4073e-02  1.7340e-02  8.1223e-03  5.0848e+00  1.3584e-02  5.5483e-03  2.1693e-03  0:05:51 1902
    99  1.4514e-02  1.6978e-02  8.5876e-03  4.7872e+00  1.3981e-02  5.6433e-03  2.1482e-03  0:04:41 1901

  iter  continuity  x-velocity  y-velocity  z-velocity      energy           k       omega     time/iter
   100  1.4853e-02  1.6582e-02  9.0744e-03  4.4822e+00  1.4273e-02  5.7355e-03  2.1301e-03  0:03:45 1900
   101  1.5083e-02  1.6143e-02  9.5816e-03  4.1754e+00  1.4455e-02  5.8312e-03  2.1134e-03  0:03:00 1899
   102  1.5204e-02  1.5670e-02  1.0103e-02  3.8916e+00  1.4526e-02  5.9273e-03  2.0982e-03  0:02:24 1898
   103  1.5222e-02  1.5162e-02  1.0636e-02  3.6363e+00  1.4493e-02  6.0140e-03  2.0785e-03  0:01:55 1897
   104  1.5145e-02  1.4549e-02  1.1207e-02  3.4541e+00  1.4364e-02  6.0980e-03  2.0574e-03  0:01:32 1896
   105  1.4983e-02  1.3956e-02  1.1764e-02  3.3427e+00  1.4150e-02  6.1728e-03  2.0368e-03  0:01:13 1895
   106  1.4747e-02  1.3414e-02  1.2303e-02  3.3072e+00  1.3864e-02  6.2427e-03  2.0195e-03  0:00:59 1894
   107  1.4445e-02  1.2907e-02  1.2833e-02  3.3376e+00  1.3513e-02  6.2995e-03  2.0047e-03  0:07:06 1893
   108  1.4080e-02  1.2442e-02  1.3348e-02  3.4176e+00  1.3101e-02  6.3461e-03  1.9852e-03  0:05:40 1892
   109  1.3653e-02  1.2037e-02  1.3857e-02  3.5231e+00  1.2628e-02  6.3940e-03  1.9670e-03  0:04:32 1891
   110  1.3174e-02  1.1765e-02  1.4320e-02  3.6359e+00  1.2104e-02  6.4288e-03  1.9523e-03  0:03:38 1890

  iter  continuity  x-velocity  y-velocity  z-velocity      energy           k       omega     time/iter
   111  1.2651e-02  1.1635e-02  1.4735e-02  3.7364e+00  1.1540e-02  6.4506e-03  1.9297e-03  0:02:54 1889
   112  1.2096e-02  1.1655e-02  1.5107e-02  3.8226e+00  1.0946e-02  6.4581e-03  1.9062e-03  0:02:19 1888
   113  1.1512e-02  1.1699e-02  1.5396e-02  3.8850e+00  1.0326e-02  6.4614e-03  1.8845e-03  0:01:51 1887
   114  1.0899e-02  1.1776e-02  1.5590e-02  3.9133e+00  9.6807e-03  6.4522e-03  1.8670e-03  0:01:29 1886
   115  1.0285e-02  1.2197e-02  1.5765e-02  3.9052e+00  9.0424e-03  6.4253e-03  1.8472e-03  0:01:11 1885
   116  9.6764e-03  1.2791e-02  1.5918e-02  3.8589e+00  8.4143e-03  6.3888e-03  1.8210e-03  0:07:14 1884
   117  9.0901e-03  1.3479e-02  1.6048e-02  3.7708e+00  7.8171e-03  6.3443e-03  1.7974e-03  0:05:47 1883
   118  8.5368e-03  1.4263e-02  1.6148e-02  3.6440e+00  7.2626e-03  6.2985e-03  1.7722e-03  0:04:37 1882
   119  8.0130e-03  1.5011e-02  1.6197e-02  3.4850e+00  6.7485e-03  6.2353e-03  1.7490e-03  0:03:42 1881
   120  7.4915e-03  1.5548e-02  1.6174e-02  3.2989e+00  6.2466e-03  6.1611e-03  1.7284e-03  0:02:57 1880
   121  7.0123e-03  1.6191e-02  1.6101e-02  3.0853e+00  5.8043e-03  6.0808e-03  1.6957e-03  0:02:22 1879

  iter  continuity  x-velocity  y-velocity  z-velocity      energy           k       omega     time/iter
   122  6.5886e-03  1.6869e-02  1.5962e-02  2.8494e+00  5.4387e-03  5.9926e-03  1.6702e-03  0:01:53 1878
   123  6.2329e-03  1.7552e-02  1.5806e-02  2.5955e+00  5.1638e-03  5.8905e-03  1.6333e-03  0:01:31 1877
   124  5.9460e-03  1.8177e-02  1.5623e-02  2.3400e+00  4.9772e-03  5.7841e-03  1.6012e-03  0:07:28 1876
   125  5.7263e-03  1.8756e-02  1.5399e-02  2.0881e+00  4.8734e-03  5.6662e-03  1.5673e-03  0:05:58 1875
   126  5.5778e-03  1.9317e-02  1.5131e-02  1.8546e+00  4.8509e-03  5.5372e-03  1.5359e-03  0:04:46 1874
   127  5.4922e-03  1.9825e-02  1.4819e-02  1.6485e+00  4.8938e-03  5.4029e-03  1.5060e-03  0:03:49 1873
   128  5.4592e-03  2.0269e-02  1.4468e-02  1.4863e+00  4.9853e-03  5.2700e-03  1.4795e-03  0:03:03 1872
   129  5.4680e-03  2.0648e-02  1.4085e-02  1.3800e+00  5.1094e-03  5.1350e-03  1.4527e-03  0:02:26 1871
   130  5.5047e-03  2.0977e-02  1.3651e-02  1.3388e+00  5.2490e-03  4.9919e-03  1.4289e-03  0:01:57 1870
   131  5.5605e-03  2.1240e-02  1.3188e-02  1.3572e+00  5.3939e-03  4.8431e-03  1.4044e-03  0:01:34 1869
   132  5.6299e-03  2.1406e-02  1.2715e-02  1.4258e+00  5.5387e-03  4.6871e-03  1.3808e-03  0:01:15 1868

  iter  continuity  x-velocity  y-velocity  z-velocity      energy           k       omega     time/iter
   133  5.7076e-03  2.1493e-02  1.2226e-02  1.5306e+00  5.6784e-03  4.5315e-03  1.3572e-03  0:07:13 1867
   134  5.7896e-03  2.1508e-02  1.1723e-02  1.6622e+00  5.8096e-03  4.3788e-03  1.3368e-03  0:05:46 1866
   135  5.8694e-03  2.1449e-02  1.1209e-02  1.8210e+00  5.9271e-03  4.2309e-03  1.3158e-03  0:04:37 1865
   136  5.9410e-03  2.1318e-02  1.0691e-02  1.9941e+00  6.0261e-03  4.0864e-03  1.2968e-03  0:03:41 1864
   137  5.9992e-03  2.1117e-02  1.0173e-02  2.1690e+00  6.1028e-03  3.9475e-03  1.2808e-03  0:02:57 1863
   138  6.0410e-03  2.0849e-02  9.6580e-03  2.3411e+00  6.1553e-03  3.8103e-03  1.2628e-03  0:02:22 1862
   139  6.0628e-03  2.0518e-02  9.1517e-03  2.5051e+00  6.1809e-03  3.6769e-03  1.2453e-03  0:01:53 1861
   140  6.0604e-03  2.0129e-02  8.6571e-03  2.6541e+00  6.1766e-03  3.5454e-03  1.2287e-03  0:01:31 1860
   141  6.0320e-03  1.9687e-02  8.1778e-03  2.7896e+00  6.1416e-03  3.4244e-03  1.2134e-03  0:07:24 1859
   142  5.9769e-03  1.9206e-02  7.7196e-03  2.8984e+00  6.0760e-03  3.3075e-03  1.2023e-03  0:05:55 1858
   143  5.8879e-03  1.8681e-02  7.2624e-03  2.9881e+00  5.9738e-03  3.1955e-03  1.1923e-03  0:04:44 1857

  iter  continuity  x-velocity  y-velocity  z-velocity      energy           k       omega     time/iter
   144  5.7742e-03  1.8159e-02  6.8370e-03  3.0617e+00  5.8443e-03  3.0974e-03  1.1803e-03  0:03:47 1856
   145  5.6324e-03  1.7591e-02  6.4290e-03  3.1151e+00  5.6839e-03  3.0028e-03  1.1689e-03  0:03:02 1855
   146  5.4646e-03  1.6993e-02  6.0179e-03  3.1491e+00  5.4949e-03  2.9167e-03  1.1599e-03  0:02:25 1854
   147  5.2713e-03  1.6345e-02  5.6748e-03  3.1697e+00  5.2787e-03  2.8462e-03  1.1513e-03  0:01:56 1853
   148  5.0415e-03  1.6015e-02  5.2044e-03  3.1711e+00  5.0288e-03  2.7859e-03  1.1500e-03  0:01:33 1852
   149  4.8026e-03  1.5477e-02  4.9490e-03  3.1580e+00  4.7681e-03  2.7324e-03  1.1488e-03  0:01:14 1851
   150  4.5517e-03  1.4807e-02  4.7672e-03  3.1298e+00  4.4927e-03  2.6812e-03  1.1492e-03  0:07:09 1850
   151  4.2854e-03  1.4117e-02  4.5911e-03  3.0816e+00  4.2008e-03  2.6460e-03  1.1498e-03  0:05:43 1849
   152  4.0111e-03  1.3391e-02  4.5111e-03  3.0216e+00  3.8999e-03  2.6231e-03  1.1494e-03  0:04:34 1848
   153  3.7441e-03  1.2891e-02  4.3878e-03  2.9478e+00  3.6066e-03  2.6073e-03  1.1476e-03  0:03:39 1847
   154  3.4745e-03  1.2514e-02  4.2353e-03  2.8733e+00  3.3113e-03  2.5927e-03  1.1438e-03  0:02:55 1846

  iter  continuity  x-velocity  y-velocity  z-velocity      energy           k       omega     time/iter
   155  3.2032e-03  1.2157e-02  4.1190e-03  2.8006e+00  3.0154e-03  2.5814e-03  1.1382e-03  0:02:20 1845
   156  2.9377e-03  1.1758e-02  4.0512e-03  2.7329e+00  2.7273e-03  2.5711e-03  1.1377e-03  0:01:52 1844
   157  2.6873e-03  1.1310e-02  4.0063e-03  2.6394e+00  2.4574e-03  2.5563e-03  1.1358e-03  0:01:30 1843
   158  2.4612e-03  1.0845e-02  3.9876e-03  2.5487e+00  2.2169e-03  2.5424e-03  1.1307e-03  0:01:12 1842
   159  2.2688e-03  1.0411e-02  3.9843e-03  2.4380e+00  2.0175e-03  2.5349e-03  1.1248e-03  0:07:06 1841
   160  2.1164e-03  1.0038e-02  3.9865e-03  2.3206e+00  1.8680e-03  2.5351e-03  1.1144e-03  0:05:40 1840
   161  2.0081e-03  9.7296e-03  3.9906e-03  2.1961e+00  1.7737e-03  2.5401e-03  1.1119e-03  0:04:32 1839
   162  1.9472e-03  9.4781e-03  3.9920e-03  2.0680e+00  1.7377e-03  2.5511e-03  1.1042e-03  0:03:38 1838
   163  1.9330e-03  9.2734e-03  3.9859e-03  1.9347e+00  1.7565e-03  2.5649e-03  1.0968e-03  0:02:54 1837
   164  1.9597e-03  9.1057e-03  3.9693e-03  1.7973e+00  1.8197e-03  2.5785e-03  1.0889e-03  0:02:19 1836
   165  2.0153e-03  8.9636e-03  3.9397e-03  1.6622e+00  1.9105e-03  2.5959e-03  1.0795e-03  0:01:51 1835

  iter  continuity  x-velocity  y-velocity  z-velocity      energy           k       omega     time/iter
   166  2.0884e-03  8.8383e-03  3.8983e-03  1.5389e+00  2.0156e-03  2.6148e-03  1.0730e-03  0:01:29 1834
   167  2.1737e-03  8.7244e-03  3.8416e-03  1.4215e+00  2.1283e-03  2.6285e-03  1.0636e-03  0:07:18 1833
   168  2.2623e-03  8.6187e-03  3.7696e-03  1.3074e+00  2.2392e-03  2.6369e-03  1.0538e-03  0:05:50 1832
   169  2.3509e-03  8.5197e-03  3.6832e-03  1.2002e+00  2.3454e-03  2.6421e-03  1.0455e-03  0:04:40 1831
   170  2.4346e-03  8.4184e-03  3.5838e-03  1.1050e+00  2.4424e-03  2.6405e-03  1.0363e-03  0:03:44 1830
   171  2.5093e-03  8.3108e-03  3.4702e-03  1.0267e+00  2.5266e-03  2.6381e-03  1.0302e-03  0:02:59 1829
   172  2.5731e-03  8.1930e-03  3.3468e-03  9.7111e-01  2.5966e-03  2.6296e-03  1.0232e-03  0:02:23 1828
   173  2.6251e-03  8.0651e-03  3.2129e-03  9.4372e-01  2.6519e-03  2.6230e-03  1.0142e-03  0:01:54 1827
   174  2.6639e-03  7.9265e-03  3.0692e-03  9.4713e-01  2.6918e-03  2.6101e-03  1.0040e-03  0:01:31 1826
   175  2.6894e-03  7.7774e-03  2.9182e-03  9.7521e-01  2.7164e-03  2.5968e-03  9.9660e-04  0:07:18 1825
   176  2.7018e-03  7.6201e-03  2.7589e-03  1.0241e+00  2.7264e-03  2.5866e-03  9.8616e-04  0:05:50 1824

  iter  continuity  x-velocity  y-velocity  z-velocity      energy           k       omega     time/iter
   177  2.7011e-03  7.4526e-03  2.5965e-03  1.0916e+00  2.7219e-03  2.5687e-03  9.7475e-04  0:04:40 1823
   178  2.6879e-03  7.2783e-03  2.4318e-03  1.1725e+00  2.7039e-03  2.5501e-03  9.6366e-04  0:03:44 1822
   179  2.6628e-03  7.0992e-03  2.2666e-03  1.2607e+00  2.6733e-03  2.5379e-03  9.4747e-04  0:02:59 1821
   180  2.6265e-03  6.9176e-03  2.1026e-03  1.3488e+00  2.6310e-03  2.5351e-03  9.3100e-04  0:02:23 1820
   181  2.5814e-03  6.7356e-03  1.9422e-03  1.4441e+00  2.5799e-03  2.5344e-03  9.1553e-04  0:01:54 1819
   182  2.5287e-03  6.5551e-03  1.7879e-03  1.5418e+00  2.5211e-03  2.5322e-03  8.9820e-04  0:01:32 1818
   183  2.4694e-03  6.3785e-03  1.6419e-03  1.6352e+00  2.4560e-03  2.5316e-03  8.8052e-04  0:07:17 1817
   184  2.4049e-03  6.2087e-03  1.5068e-03  1.7231e+00  2.3862e-03  2.5314e-03  8.6604e-04  0:05:49 1816
   185  2.3373e-03  6.0481e-03  1.3848e-03  1.8023e+00  2.3139e-03  2.5383e-03  8.5308e-04  0:04:39 1815
   186  2.2694e-03  5.8985e-03  1.2782e-03  1.8736e+00  2.2421e-03  2.5544e-03  8.3916e-04  0:03:43 1814
   187  2.2029e-03  5.7614e-03  1.1890e-03  1.9340e+00  2.1727e-03  2.5757e-03  8.2589e-04  0:02:58 1813

  iter  continuity  x-velocity  y-velocity  z-velocity      energy           k       omega     time/iter
   188  2.1395e-03  5.6379e-03  1.1195e-03  1.9801e+00  2.1073e-03  2.5975e-03  8.1328e-04  0:02:23 1812
   189  2.0821e-03  5.5297e-03  1.0691e-03  2.0156e+00  2.0490e-03  2.6186e-03  8.0066e-04  0:01:54 1811
   190  2.0322e-03  5.4361e-03  1.0392e-03  2.0361e+00  1.9993e-03  2.6393e-03  7.8769e-04  0:07:33 1810
   191  1.9916e-03  5.3566e-03  1.0276e-03  2.0443e+00  1.9598e-03  2.6623e-03  7.7746e-04  0:06:02 1809
   192  1.9614e-03  5.2915e-03  1.0301e-03  2.0404e+00  1.9317e-03  2.6857e-03  7.6797e-04  0:04:50 1808
   193  1.9423e-03  5.2398e-03  1.0427e-03  2.0265e+00  1.9151e-03  2.7050e-03  7.5931e-04  0:03:52 1807
   194  1.9348e-03  5.2002e-03  1.0624e-03  2.0011e+00  1.9105e-03  2.7241e-03  7.4985e-04  0:03:05 1806
   195  1.9393e-03  5.1709e-03  1.0862e-03  1.9613e+00  1.9179e-03  2.7397e-03  7.4284e-04  0:02:28 1805
   196  1.9543e-03  5.1504e-03  1.1117e-03  1.9131e+00  1.9356e-03  2.7540e-03  7.3516e-04  0:01:58 1804
   197  1.9782e-03  5.1373e-03  1.1372e-03  1.8618e+00  1.9616e-03  2.7630e-03  7.2730e-04  0:01:35 1803
   198  2.0092e-03  5.1294e-03  1.1616e-03  1.8059e+00  1.9941e-03  2.7602e-03  7.1995e-04  0:01:16 1802

  iter  continuity  x-velocity  y-velocity  z-velocity      energy           k       omega     time/iter
   199  2.0455e-03  5.1249e-03  1.1838e-03  1.7449e+00  2.0311e-03  2.7524e-03  7.1446e-04  0:01:01 1801
   200  2.0851e-03  5.1220e-03  1.2036e-03  1.6794e+00  2.0708e-03  2.7385e-03  7.1151e-04  0:06:48 1800
   201  2.1263e-03  5.1193e-03  1.2209e-03  1.6104e+00  2.1111e-03  2.7180e-03  7.0849e-04  0:05:27 1799
   202  2.1671e-03  5.1151e-03  1.2354e-03  1.5268e+00  2.1504e-03  2.6969e-03  7.0423e-04  0:04:21 1798
   203  2.2063e-03  5.1081e-03  1.2480e-03  1.4368e+00  2.1874e-03  2.6773e-03  7.0087e-04  0:03:29 1797
   204  2.2424e-03  5.0972e-03  1.2590e-03  1.3492e+00  2.2206e-03  2.6564e-03  6.9610e-04  0:02:47 1796
   205  2.2740e-03  5.0816e-03  1.2691e-03  1.2628e+00  2.2489e-03  2.6367e-03  6.9218e-04  0:02:13 1795
   206  2.3012e-03  5.0607e-03  1.2790e-03  1.1820e+00  2.2724e-03  2.6162e-03  6.8688e-04  0:01:47 1794
   207  2.3229e-03  5.0345e-03  1.2893e-03  1.1014e+00  2.2900e-03  2.5927e-03  6.8188e-04  0:01:25 1793
   208  2.3384e-03  5.0028e-03  1.3008e-03  1.0203e+00  2.3012e-03  2.5703e-03  6.7728e-04  0:07:07 1792
   209  2.3470e-03  4.9659e-03  1.3145e-03  9.5214e-01  2.3055e-03  2.5458e-03  6.7418e-04  0:05:41 1791

  iter  continuity  x-velocity  y-velocity  z-velocity      energy           k       omega     time/iter
   210  2.3485e-03  4.9239e-03  1.3306e-03  8.9036e-01  2.3027e-03  2.5209e-03  6.7099e-04  0:04:33 1790
   211  2.3428e-03  4.8775e-03  1.3496e-03  8.2583e-01  2.2928e-03  2.4928e-03  6.6941e-04  0:03:38 1789
   212  2.3296e-03  4.8268e-03  1.3716e-03  7.6725e-01  2.2757e-03  2.4658e-03  6.6683e-04  0:02:54 1788
   213  2.3091e-03  4.7727e-03  1.3963e-03  7.1296e-01  2.2515e-03  2.4409e-03  6.6619e-04  0:02:19 1787
   214  2.2814e-03  4.7162e-03  1.4234e-03  6.6525e-01  2.2205e-03  2.4186e-03  6.6097e-04  0:01:51 1786
   215  2.2472e-03  4.6570e-03  1.4539e-03  6.2695e-01  2.1835e-03  2.3967e-03  6.5837e-04  0:01:29 1785
   216  2.2068e-03  4.5991e-03  1.4832e-03  6.0026e-01  2.1406e-03  2.3714e-03  6.5535e-04  0:07:08 1784
   217  2.1602e-03  4.5406e-03  1.5139e-03  5.8556e-01  2.0922e-03  2.3409e-03  6.5201e-04  0:05:42 1783
   218  2.1080e-03  4.4827e-03  1.5444e-03  5.8162e-01  2.0388e-03  2.3064e-03  6.4903e-04  0:04:34 1782
   219  2.0506e-03  4.4273e-03  1.5736e-03  5.8666e-01  1.9807e-03  2.2690e-03  6.4509e-04  0:03:39 1781
   220  1.9887e-03  4.3739e-03  1.6016e-03  5.9806e-01  1.9188e-03  2.2313e-03  6.3990e-04  0:02:55 1780

  iter  continuity  x-velocity  y-velocity  z-velocity      energy           k       omega     time/iter
   221  1.9230e-03  4.3229e-03  1.6275e-03  6.1392e-01  1.8538e-03  2.1955e-03  6.3388e-04  0:02:20 1779
   222  1.8544e-03  4.2749e-03  1.6502e-03  6.3280e-01  1.7864e-03  2.1634e-03  6.2702e-04  0:07:47 1778
   223  1.7835e-03  4.2295e-03  1.6676e-03  6.5268e-01  1.7175e-03  2.1360e-03  6.1937e-04  0:06:14 1777
   224  1.7114e-03  4.1874e-03  1.6812e-03  6.7183e-01  1.6478e-03  2.1104e-03  6.0991e-04  0:04:59 1776
   225  1.6393e-03  4.1486e-03  1.6906e-03  6.8844e-01  1.5787e-03  2.0903e-03  6.0018e-04  0:03:59 1775
   226  1.5680e-03  4.1121e-03  1.6950e-03  7.0302e-01  1.5109e-03  2.0727e-03  5.9168e-04  0:03:11 1774
   227  1.4979e-03  4.0772e-03  1.6940e-03  7.1485e-01  1.4447e-03  2.0547e-03  5.8160e-04  0:02:33 1773
   228  1.4294e-03  4.0432e-03  1.6876e-03  7.2259e-01  1.3805e-03  2.0392e-03  5.7184e-04  0:02:02 1772
   229  1.3632e-03  4.0095e-03  1.6758e-03  7.2547e-01  1.3187e-03  2.0254e-03  5.6129e-04  0:07:32 1771
   230  1.2998e-03  3.9754e-03  1.6581e-03  7.1966e-01  1.2599e-03  2.0095e-03  5.5181e-04  0:06:01 1770
   231  1.2399e-03  3.9401e-03  1.6350e-03  7.1078e-01  1.2045e-03  1.9926e-03  5.3921e-04  0:04:49 1769

  iter  continuity  x-velocity  y-velocity  z-velocity      energy           k       omega     time/iter
   232  1.1836e-03  3.9029e-03  1.6066e-03  7.0094e-01  1.1525e-03  1.9741e-03  5.2964e-04  0:03:51 1768
   233  1.1312e-03  3.8632e-03  1.5732e-03  6.9001e-01  1.1041e-03  1.9544e-03  5.1750e-04  0:03:05 1767
   234  1.0821e-03  3.8209e-03  1.5353e-03  6.7840e-01  1.0586e-03  1.9349e-03  5.0653e-04  0:02:28 1766
   235  1.0377e-03  3.7755e-03  1.4930e-03  6.6588e-01  1.0173e-03  1.9134e-03  4.9771e-04  0:01:58 1765
   236  9.9834e-04  3.7265e-03  1.4468e-03  6.5220e-01  9.8032e-04  1.8902e-03  4.8809e-04  0:01:34 1764
   237  9.6329e-04  3.6738e-03  1.3971e-03  6.3599e-01  9.4700e-04  1.8650e-03  4.7771e-04  0:07:08 1763
   238  9.3202e-04  3.6174e-03  1.3446e-03  6.1794e-01  9.1674e-04  1.8398e-03  4.6757e-04  0:05:42 1762
   239  9.0409e-04  3.5573e-03  1.2898e-03  6.0045e-01  8.8909e-04  1.8129e-03  4.5611e-04  0:04:34 1761
   240  8.7919e-04  3.4937e-03  1.2333e-03  5.8410e-01  8.6377e-04  1.7850e-03  4.4434e-04  0:03:39 1760
   241  8.5712e-04  3.4271e-03  1.1750e-03  5.6965e-01  8.4061e-04  1.7563e-03  4.3402e-04  0:02:55 1759
   242  8.3768e-04  3.3576e-03  1.1166e-03  5.5695e-01  8.1947e-04  1.7251e-03  4.2278e-04  0:02:20 1758

  iter  continuity  x-velocity  y-velocity  z-velocity      energy           k       omega     time/iter
   243  8.2086e-04  3.2853e-03  1.0588e-03  5.4611e-01  8.0042e-04  1.6929e-03  4.1277e-04  0:01:52 1757
   244  8.0675e-04  3.2111e-03  1.0015e-03  5.3754e-01  7.8361e-04  1.6595e-03  4.0275e-04  0:01:29 1756
   245  7.9541e-04  3.1360e-03  9.4555e-04  5.3038e-01  7.6925e-04  1.6243e-03  3.9361e-04  0:07:02 1755
   246  7.8689e-04  3.0608e-03  8.9150e-04  5.2555e-01  7.5757e-04  1.5904e-03  3.8488e-04  0:05:38 1754
   247  7.8119e-04  2.9860e-03  8.4005e-04  5.2274e-01  7.4866e-04  1.5557e-03  3.7613e-04  0:04:30 1753
   248  7.7826e-04  2.9122e-03  7.9176e-04  5.2052e-01  7.4260e-04  1.5217e-03  3.7237e-04  0:03:36 1752
   249  7.7805e-04  2.8401e-03  7.4714e-04  5.1884e-01  7.3944e-04  1.4853e-03  3.6463e-04  0:02:53 1751
   250  7.8042e-04  2.7703e-03  7.0660e-04  5.1874e-01  7.3912e-04  1.4507e-03  3.6183e-04  0:02:18 1750
   251  7.8513e-04  2.7036e-03  6.7052e-04  5.2070e-01  7.4147e-04  1.4186e-03  3.5535e-04  0:01:50 1749
   252  7.9191e-04  2.6404e-03  6.3921e-04  5.2422e-01  7.4624e-04  1.3868e-03  3.4969e-04  0:01:28 1748
   253  8.0029e-04  2.5811e-03  6.1285e-04  5.2853e-01  7.5299e-04  1.3573e-03  3.4908e-04  0:07:00 1747

  iter  continuity  x-velocity  y-velocity  z-velocity      energy           k       omega     time/iter
   254  8.0986e-04  2.5262e-03  5.9150e-04  5.3336e-01  7.6129e-04  1.3309e-03  3.4720e-04  0:05:36 1746
   255  8.2034e-04  2.4759e-03  5.7508e-04  5.3768e-01  7.7087e-04  1.3075e-03  3.4584e-04  0:04:28 1745
   256  8.3153e-04  2.4305e-03  5.6336e-04  5.4177e-01  7.8150e-04  1.2842e-03  3.4233e-04  0:03:35 1744
   257  8.4315e-04  2.3901e-03  5.5599e-04  5.4535e-01  7.9287e-04  1.2626e-03  3.3948e-04  0:02:52 1743
   258  8.5474e-04  2.3548e-03  5.5255e-04  5.4833e-01  8.0449e-04  1.2427e-03  3.3680e-04  0:02:17 1742
   259  8.6557e-04  2.3246e-03  5.5258e-04  5.5033e-01  8.1560e-04  1.2250e-03  3.3444e-04  0:01:50 1741
   260  8.7545e-04  2.2995e-03  5.5546e-04  5.5093e-01  8.2599e-04  1.2099e-03  3.3231e-04  0:01:28 1740
   261  8.8439e-04  2.2796e-03  5.6063e-04  5.4972e-01  8.3568e-04  1.1950e-03  3.3087e-04  0:06:58 1739
   262  8.9252e-04  2.2647e-03  5.6759e-04  5.4728e-01  8.4476e-04  1.1823e-03  3.2934e-04  0:05:34 1738
   263  8.9982e-04  2.2547e-03  5.7586e-04  5.4312e-01  8.5324e-04  1.1717e-03  3.2863e-04  0:04:27 1737
   264  9.0599e-04  2.2495e-03  5.8502e-04  5.3725e-01  8.6080e-04  1.1624e-03  3.2786e-04  0:03:34 1736

  iter  continuity  x-velocity  y-velocity  z-velocity      energy           k       omega     time/iter
   265  9.1094e-04  2.2488e-03  5.9467e-04  5.3040e-01  8.6736e-04  1.1541e-03  3.2658e-04  0:02:51 1735
   266  9.1472e-04  2.2525e-03  6.0445e-04  5.2251e-01  8.7297e-04  1.1479e-03  3.2547e-04  0:02:17 1734
   267  9.1749e-04  2.2603e-03  6.1407e-04  5.1374e-01  8.7780e-04  1.1441e-03  3.2476e-04  0:01:49 1733
   268  9.1942e-04  2.2719e-03  6.2324e-04  5.0449e-01  8.8203e-04  1.1439e-03  3.2474e-04  0:07:14 1732
   269  9.2050e-04  2.2873e-03  6.3178e-04  4.9474e-01  8.8563e-04  1.1462e-03  3.2401e-04  0:05:47 1731
   270  9.2080e-04  2.3059e-03  6.3945e-04  4.8427e-01  8.8867e-04  1.1493e-03  3.2314e-04  0:04:37 1730
   271  9.2012e-04  2.3278e-03  6.4608e-04  4.7358e-01  8.9093e-04  1.1536e-03  3.2159e-04  0:03:42 1729
   272  9.1865e-04  2.3523e-03  6.5144e-04  4.6210e-01  8.9259e-04  1.1590e-03  3.2198e-04  0:02:57 1728
   273  9.1649e-04  2.3791e-03  6.5542e-04  4.4959e-01  8.9370e-04  1.1631e-03  3.2238e-04  0:02:22 1727
   274  9.1371e-04  2.4079e-03  6.5793e-04  4.3533e-01  8.9431e-04  1.1679e-03  3.2161e-04  0:01:53 1726
   275  9.1035e-04  2.4380e-03  6.5884e-04  4.2019e-01  8.9442e-04  1.1738e-03  3.2223e-04  0:01:31 1725

  iter  continuity  x-velocity  y-velocity  z-velocity      energy           k       omega     time/iter
   276  9.0629e-04  2.4688e-03  6.5809e-04  4.0441e-01  8.9386e-04  1.1801e-03  3.2281e-04  0:06:57 1724
   277  9.0159e-04  2.5001e-03  6.5566e-04  3.8820e-01  8.9264e-04  1.1879e-03  3.2350e-04  0:05:34 1723
   278  8.9626e-04  2.5311e-03  6.5153e-04  3.7199e-01  8.9071e-04  1.1958e-03  3.2420e-04  0:04:27 1722
   279  8.9026e-04  2.5614e-03  6.4573e-04  3.5582e-01  8.8798e-04  1.2045e-03  3.2498e-04  0:03:33 1721
   280  8.8356e-04  2.5905e-03  6.3833e-04  3.3965e-01  8.8437e-04  1.2123e-03  3.2556e-04  0:02:50 1720
   281  8.7606e-04  2.6178e-03  6.2941e-04  3.2366e-01  8.7974e-04  1.2203e-03  3.2642e-04  0:02:16 1719
   282  8.6768e-04  2.6430e-03  6.1910e-04  3.0780e-01  8.7393e-04  1.2278e-03  3.2704e-04  0:01:49 1718
   283  8.5841e-04  2.6655e-03  6.0755e-04  2.9189e-01  8.6690e-04  1.2343e-03  3.3019e-04  0:07:11 1717
   284  8.4824e-04  2.6851e-03  5.9497e-04  2.7620e-01  8.5859e-04  1.2414e-03  3.3349e-04  0:05:44 1716
   285  8.3705e-04  2.7013e-03  5.8158e-04  2.6083e-01  8.4885e-04  1.2487e-03  3.3396e-04  0:04:35 1715
   286  8.2489e-04  2.7139e-03  5.6769e-04  2.4552e-01  8.3770e-04  1.2561e-03  3.3462e-04  0:03:40 1714

  iter  continuity  x-velocity  y-velocity  z-velocity      energy           k       omega     time/iter
   287  8.1193e-04  2.7227e-03  5.5364e-04  2.3071e-01  8.2526e-04  1.2637e-03  3.3604e-04  0:02:56 1713
   288  7.9819e-04  2.7273e-03  5.3977e-04  2.1597e-01  8.1152e-04  1.2709e-03  3.3861e-04  0:02:21 1712
   289  7.8371e-04  2.7278e-03  5.2651e-04  2.0169e-01  7.9654e-04  1.2780e-03  3.4118e-04  0:01:52 1711
   290  7.6851e-04  2.7242e-03  5.1425e-04  1.8832e-01  7.8030e-04  1.2866e-03  3.4114e-04  0:07:12 1710
   291  7.5254e-04  2.7163e-03  5.0348e-04  1.7632e-01  7.6277e-04  1.2932e-03  3.4117e-04  0:05:45 1709
   292  7.3592e-04  2.7043e-03  4.9457e-04  1.6612e-01  7.4408e-04  1.2997e-03  3.4270e-04  0:04:36 1708
   293  7.1878e-04  2.6883e-03  4.8792e-04  1.5792e-01  7.2436e-04  1.3050e-03  3.4350e-04  0:03:41 1707
   294  7.0122e-04  2.6684e-03  4.8383e-04  1.5256e-01  7.0376e-04  1.3091e-03  3.4267e-04  0:02:57 1706
   295  6.8334e-04  2.6446e-03  4.8252e-04  1.4964e-01  6.8241e-04  1.3128e-03  3.3999e-04  0:02:21 1705
   296  6.6524e-04  2.6175e-03  4.8413e-04  1.4880e-01  6.6044e-04  1.3165e-03  3.3790e-04  0:01:53 1704
   297  6.4702e-04  2.5872e-03  4.8864e-04  1.4978e-01  6.3802e-04  1.3208e-03  3.3573e-04  0:01:30 1703

  iter  continuity  x-velocity  y-velocity  z-velocity      energy           k       omega     time/iter
   298  6.2883e-04  2.5541e-03  4.9588e-04  1.5201e-01  6.1536e-04  1.3256e-03  3.3459e-04  0:06:53 1702
   299  6.1078e-04  2.5185e-03  5.0564e-04  1.5497e-01  5.9263e-04  1.3305e-03  3.3307e-04  0:05:30 1701
   300  5.9296e-04  2.4807e-03  5.1757e-04  1.5815e-01  5.7001e-04  1.3356e-03  3.2941e-04  0:04:24 1700
   301  5.7552e-04  2.4414e-03  5.3126e-04  1.6129e-01  5.4775e-04  1.3397e-03  3.2575e-04  0:03:31 1699
   302  5.5864e-04  2.4010e-03  5.4626e-04  1.6422e-01  5.2614e-04  1.3427e-03  3.2230e-04  0:02:49 1698
   303  5.4250e-04  2.3600e-03  5.6213e-04  1.6695e-01  5.0545e-04  1.3451e-03  3.1841e-04  0:02:15 1697
   304  5.2730e-04  2.3192e-03  5.7839e-04  1.6951e-01  4.8603e-04  1.3477e-03  3.1911e-04  0:01:48 1696
   305  5.1323e-04  2.2786e-03  5.9464e-04  1.7169e-01  4.6819e-04  1.3474e-03  3.1742e-04  0:01:26 1695
   306  5.0054e-04  2.2386e-03  6.1050e-04  1.7348e-01  4.5232e-04  1.3476e-03  3.1679e-04  0:06:48 1694
   307  4.8946e-04  2.1996e-03  6.2562e-04  1.7471e-01  4.3880e-04  1.3476e-03  3.1703e-04  0:05:26 1693
   308  4.8015e-04  2.1620e-03  6.3965e-04  1.7540e-01  4.2788e-04  1.3469e-03  3.1751e-04  0:04:21 1692

  iter  continuity  x-velocity  y-velocity  z-velocity      energy           k       omega     time/iter
   309  4.7277e-04  2.1258e-03  6.5233e-04  1.7548e-01  4.1980e-04  1.3458e-03  3.1860e-04  0:03:28 1691
   310  4.6743e-04  2.0915e-03  6.6341e-04  1.7485e-01  4.1473e-04  1.3450e-03  3.1938e-04  0:02:47 1690
   311  4.6421e-04  2.0592e-03  6.7271e-04  1.7346e-01  4.1271e-04  1.3445e-03  3.1922e-04  0:02:13 1689
   312  4.6316e-04  2.0292e-03  6.8012e-04  1.7138e-01  4.1374e-04  1.3449e-03  3.1847e-04  0:01:46 1688
   313  4.6421e-04  2.0014e-03  6.8550e-04  1.6859e-01  4.1761e-04  1.3464e-03  3.1750e-04  0:07:03 1687
   314  4.6725e-04  1.9760e-03  6.8876e-04  1.6511e-01  4.2404e-04  1.3471e-03  3.1778e-04  0:05:38 1686
   315  4.7210e-04  1.9529e-03  6.8985e-04  1.6096e-01  4.3267e-04  1.3492e-03  3.1749e-04  0:04:30 1685
   316  4.7865e-04  1.9319e-03  6.8871e-04  1.5622e-01  4.4323e-04  1.3517e-03  3.1564e-04  0:03:36 1684
   317  4.8664e-04  1.9130e-03  6.8531e-04  1.5097e-01  4.5527e-04  1.3550e-03  3.1281e-04  0:02:53 1683
   318  4.9582e-04  1.8958e-03  6.7970e-04  1.4521e-01  4.6842e-04  1.3563e-03  3.1136e-04  0:02:18 1682
   319  5.0584e-04  1.8802e-03  6.7192e-04  1.3909e-01  4.8220e-04  1.3566e-03  3.0983e-04  0:01:50 1681

  iter  continuity  x-velocity  y-velocity  z-velocity      energy           k       omega     time/iter
   320  5.1637e-04  1.8658e-03  6.6207e-04  1.3280e-01  4.9620e-04  1.3577e-03  3.0808e-04  0:01:28 1680
   321  5.2719e-04  1.8523e-03  6.5026e-04  1.2646e-01  5.1016e-04  1.3592e-03  3.0606e-04  0:06:46 1679
   322  5.3806e-04  1.8398e-03  6.3660e-04  1.2013e-01  5.2382e-04  1.3613e-03  3.0340e-04  0:05:25 1678
   323  5.4866e-04  1.8279e-03  6.2124e-04  1.1389e-01  5.3683e-04  1.3627e-03  3.0080e-04  0:04:20 1677
   324  5.5874e-04  1.8165e-03  6.0433e-04  1.0785e-01  5.4896e-04  1.3630e-03  2.9855e-04  0:03:28 1676
   325  5.6810e-04  1.8054e-03  5.8605e-04  1.0213e-01  5.6001e-04  1.3632e-03  2.9621e-04  0:02:46 1675
   326  5.7659e-04  1.7946e-03  5.6659e-04  9.6809e-02  5.6987e-04  1.3627e-03  2.9393e-04  0:02:13 1674
   327  5.8406e-04  1.7838e-03  5.4619e-04  9.1986e-02  5.7843e-04  1.3614e-03  2.9273e-04  0:01:46 1673
   328  5.9020e-04  1.7730e-03  5.2507e-04  8.7661e-02  5.8538e-04  1.3600e-03  2.9127e-04  0:01:25 1672
   329  5.9474e-04  1.7622e-03  5.0348e-04  8.3940e-02  5.9051e-04  1.3606e-03  2.9016e-04  0:06:42 1671
   330  5.9743e-04  1.7515e-03  4.8169e-04  8.0861e-02  5.9361e-04  1.3601e-03  2.8798e-04  0:05:21 1670

  iter  continuity  x-velocity  y-velocity  z-velocity      energy           k       omega     time/iter
   331  5.9898e-04  1.7412e-03  4.6003e-04  7.8375e-02  5.9540e-04  1.3580e-03  2.8669e-04  0:04:17 1669
   332  5.9905e-04  1.7312e-03  4.3867e-04  7.6362e-02  5.9559e-04  1.3550e-03  2.8579e-04  0:03:25 1668
   333  5.9750e-04  1.7215e-03  4.1795e-04  7.4812e-02  5.9404e-04  1.3513e-03  2.8468e-04  0:02:44 1667
   334  5.9448e-04  1.7122e-03  3.9738e-04  7.3709e-02  5.9095e-04  1.3485e-03  2.8390e-04  0:02:11 1666
   335  5.9047e-04  1.7035e-03  3.7846e-04  7.3023e-02  5.8680e-04  1.3464e-03  2.8243e-04  0:01:45 1665
   336  5.8568e-04  1.6958e-03  3.6142e-04  7.2722e-02  5.8183e-04  1.3437e-03  2.8161e-04  0:01:24 1664
   337  5.8007e-04  1.6890e-03  3.4651e-04  7.2740e-02  5.7603e-04  1.3395e-03  2.8190e-04  0:06:40 1663
   338  5.7380e-04  1.6833e-03  3.3397e-04  7.3010e-02  5.6952e-04  1.3348e-03  2.8180e-04  0:05:20 1662
   339  5.6720e-04  1.6787e-03  3.2402e-04  7.3549e-02  5.6267e-04  1.3303e-03  2.8233e-04  0:04:16 1661
   340  5.6050e-04  1.6752e-03  3.1698e-04  7.4328e-02  5.5567e-04  1.3270e-03  2.8252e-04  0:03:24 1660
   341  5.5393e-04  1.6730e-03  3.1301e-04  7.5170e-02  5.4875e-04  1.3241e-03  2.8250e-04  0:02:43 1659

  iter  continuity  x-velocity  y-velocity  z-velocity      energy           k       omega     time/iter
   342  5.4776e-04  1.6720e-03  3.1215e-04  7.6103e-02  5.4216e-04  1.3214e-03  2.8294e-04  0:02:11 1658
   343  5.4224e-04  1.6722e-03  3.1441e-04  7.7132e-02  5.3612e-04  1.3184e-03  2.8394e-04  0:07:16 1657
   344  5.3760e-04  1.6736e-03  3.1970e-04  7.8300e-02  5.3082e-04  1.3149e-03  2.8317e-04  0:05:48 1656
   345  5.3408e-04  1.6761e-03  3.2792e-04  7.9642e-02  5.2647e-04  1.3111e-03  2.8039e-04  0:04:39 1655
   346  5.3210e-04  1.6795e-03  3.3883e-04  8.1191e-02  5.2347e-04  1.3086e-03  2.7922e-04  0:03:43 1654
   347  5.3163e-04  1.6836e-03  3.5219e-04  8.2938e-02  5.2173e-04  1.3089e-03  2.7968e-04  0:02:58 1653
   348  5.3270e-04  1.6881e-03  3.6776e-04  8.4836e-02  5.2129e-04  1.3083e-03  2.8020e-04  0:02:22 1652
   349  5.3547e-04  1.6928e-03  3.8530e-04  8.6887e-02  5.2228e-04  1.3082e-03  2.8046e-04  0:01:54 1651
   350  5.3996e-04  1.6975e-03  4.0462e-04  8.9072e-02  5.2471e-04  1.3071e-03  2.8072e-04  0:01:31 1650
   351  5.4610e-04  1.7020e-03  4.2555e-04  9.1450e-02  5.2850e-04  1.3062e-03  2.8138e-04  0:06:43 1649
   352  5.5376e-04  1.7061e-03  4.4792e-04  9.4146e-02  5.3355e-04  1.3051e-03  2.8180e-04  0:05:22 1648

  iter  continuity  x-velocity  y-velocity  z-velocity      energy           k       omega     time/iter
   353  5.6261e-04  1.7095e-03  4.7160e-04  9.7205e-02  5.3952e-04  1.3041e-03  2.8262e-04  0:04:17 1647
   354  5.7282e-04  1.7122e-03  4.9646e-04  1.0061e-01  5.4663e-04  1.3028e-03  2.8312e-04  0:03:26 1646
   355  5.8397e-04  1.7137e-03  5.2237e-04  1.0429e-01  5.5446e-04  1.3006e-03  2.8329e-04  0:02:44 1645
   356  5.9550e-04  1.7140e-03  5.4945e-04  1.0822e-01  5.6254e-04  1.2985e-03  2.8313e-04  0:02:12 1644
   357  6.0760e-04  1.7131e-03  5.7713e-04  1.1235e-01  5.7101e-04  1.2965e-03  2.8332e-04  0:01:45 1643
   358  6.1998e-04  1.7119e-03  6.0656e-04  1.1666e-01  5.7963e-04  1.2944e-03  2.8370e-04  0:06:52 1642
   359  6.3256e-04  1.7077e-03  6.3408e-04  1.2141e-01  5.8837e-04  1.2935e-03  2.8399e-04  0:05:30 1641
   360  6.4482e-04  1.7023e-03  6.6315e-04  1.2631e-01  5.9674e-04  1.2920e-03  2.8347e-04  0:04:24 1640
   361  6.5655e-04  1.6955e-03  6.9256e-04  1.3118e-01  6.0458e-04  1.2882e-03  2.8242e-04  0:03:31 1639
   362  6.6759e-04  1.6874e-03  7.2208e-04  1.3600e-01  6.1176e-04  1.2836e-03  2.8146e-04  0:02:49 1638
   363  6.7792e-04  1.6781e-03  7.5160e-04  1.4067e-01  6.1827e-04  1.2789e-03  2.8029e-04  0:02:15 1637

  iter  continuity  x-velocity  y-velocity  z-velocity      energy           k       omega     time/iter
   364  6.8738e-04  1.6678e-03  7.8099e-04  1.4511e-01  6.2399e-04  1.2731e-03  2.7897e-04  0:01:48 1636
   365  6.9576e-04  1.6566e-03  8.1011e-04  1.4936e-01  6.2870e-04  1.2676e-03  2.7691e-04  0:01:26 1635
   366  7.0313e-04  1.6446e-03  8.3876e-04  1.5347e-01  6.3252e-04  1.2618e-03  2.7489e-04  0:06:36 1634
   367  7.0937e-04  1.6318e-03  8.6684e-04  1.5741e-01  6.3534e-04  1.2552e-03  2.7327e-04  0:05:16 1633
   368  7.1445e-04  1.6184e-03  8.9421e-04  1.6120e-01  6.3716e-04  1.2501e-03  2.7159e-04  0:04:13 1632
   369  7.1837e-04  1.6045e-03  9.2068e-04  1.6485e-01  6.3799e-04  1.2429e-03  2.6870e-04  0:03:22 1631
   370  7.2106e-04  1.5905e-03  9.4611e-04  1.6837e-01  6.3779e-04  1.2362e-03  2.6655e-04  0:02:42 1630
   371  7.2247e-04  1.5765e-03  9.7034e-04  1.7170e-01  6.3650e-04  1.2294e-03  2.6379e-04  0:02:09 1629
   372  7.2271e-04  1.5628e-03  9.9330e-04  1.7483e-01  6.3426e-04  1.2221e-03  2.6197e-04  0:01:43 1628
   373  7.2181e-04  1.5494e-03  1.0149e-03  1.7774e-01  6.3112e-04  1.2152e-03  2.5963e-04  0:01:23 1627
   374  7.1986e-04  1.5365e-03  1.0349e-03  1.8040e-01  6.2718e-04  1.2049e-03  2.5707e-04  0:06:31 1626

  iter  continuity  x-velocity  y-velocity  z-velocity      energy           k       omega     time/iter
   375  7.1698e-04  1.5245e-03  1.0533e-03  1.8292e-01  6.2257e-04  1.1939e-03  2.5564e-04  0:05:13 1625
   376  7.1322e-04  1.5132e-03  1.0700e-03  1.8532e-01  6.1736e-04  1.1810e-03  2.5479e-04  0:04:10 1624
   377  7.0871e-04  1.5026e-03  1.0851e-03  1.8765e-01  6.1167e-04  1.1698e-03  2.5318e-04  0:03:20 1623
   378  7.0352e-04  1.4931e-03  1.0983e-03  1.8987e-01  6.0558e-04  1.1575e-03  2.5182e-04  0:02:40 1622
   379  6.9774e-04  1.4846e-03  1.1098e-03  1.9194e-01  5.9919e-04  1.1469e-03  2.4948e-04  0:02:08 1621
   380  6.9153e-04  1.4771e-03  1.1194e-03  1.9383e-01  5.9265e-04  1.1373e-03  2.4749e-04  0:01:42 1620
   381  6.8497e-04  1.4704e-03  1.1271e-03  1.9552e-01  5.8603e-04  1.1273e-03  2.4523e-04  0:01:22 1619
   382  6.7819e-04  1.4643e-03  1.1330e-03  1.9704e-01  5.7947e-04  1.1188e-03  2.4314e-04  0:06:29 1618
   383  6.7131e-04  1.4589e-03  1.1372e-03  1.9841e-01  5.7306e-04  1.1104e-03  2.4095e-04  0:05:11 1617
   384  6.6434e-04  1.4539e-03  1.1395e-03  1.9962e-01  5.6678e-04  1.1018e-03  2.3844e-04  0:04:09 1616
   385  6.5740e-04  1.4494e-03  1.1401e-03  2.0060e-01  5.6074e-04  1.0933e-03  2.3576e-04  0:03:19 1615

  iter  continuity  x-velocity  y-velocity  z-velocity      energy           k       omega     time/iter
   386  6.5065e-04  1.4452e-03  1.1390e-03  2.0137e-01  5.5509e-04  1.0845e-03  2.3327e-04  0:02:39 1614
   387  6.4416e-04  1.4413e-03  1.1364e-03  2.0194e-01  5.4989e-04  1.0758e-03  2.3066e-04  0:02:07 1613
   388  6.3789e-04  1.4374e-03  1.1322e-03  2.0230e-01  5.4503e-04  1.0667e-03  2.2888e-04  0:01:42 1612
   389  6.3192e-04  1.4334e-03  1.1267e-03  2.0257e-01  5.4058e-04  1.0575e-03  2.2643e-04  0:06:43 1611
   390  6.2632e-04  1.4291e-03  1.1198e-03  2.0319e-01  5.3658e-04  1.0479e-03  2.2389e-04  0:05:23 1610
   391  6.2115e-04  1.4245e-03  1.1117e-03  2.0397e-01  5.3304e-04  1.0385e-03  2.2151e-04  0:04:18 1609
   392  6.1652e-04  1.4195e-03  1.1026e-03  2.0470e-01  5.3008e-04  1.0280e-03  2.1953e-04  0:03:26 1608
   393  6.1239e-04  1.4140e-03  1.0926e-03  2.0506e-01  5.2761e-04  1.0174e-03  2.1765e-04  0:02:45 1607
   394  6.0872e-04  1.4080e-03  1.0818e-03  2.0502e-01  5.2555e-04  1.0069e-03  2.1579e-04  0:02:12 1606
   395  6.0560e-04  1.4014e-03  1.0704e-03  2.0461e-01  5.2397e-04  9.9632e-04  2.1400e-04  0:01:45 1605
   396  6.0299e-04  1.3941e-03  1.0584e-03  2.0394e-01  5.2278e-04  9.8617e-04  2.1214e-04  0:01:24 1604

  iter  continuity  x-velocity  y-velocity  z-velocity      energy           k       omega     time/iter
   397  6.0085e-04  1.3861e-03  1.0462e-03  2.0310e-01  5.2196e-04  9.7572e-04  2.1016e-04  0:06:28 1603
   398  5.9918e-04  1.3775e-03  1.0337e-03  2.0211e-01  5.2144e-04  9.6546e-04  2.0830e-04  0:05:10 1602
   399  5.9799e-04  1.3683e-03  1.0212e-03  2.0104e-01  5.2126e-04  9.5530e-04  2.0585e-04  0:04:08 1601
   400  5.9727e-04  1.3586e-03  1.0088e-03  1.9991e-01  5.2137e-04  9.4532e-04  2.0331e-04  0:03:18 1600
   401  5.9703e-04  1.3484e-03  9.9672e-04  1.9873e-01  5.2178e-04  9.3583e-04  2.0127e-04  0:02:39 1599
   402  5.9727e-04  1.3378e-03  9.8505e-04  1.9755e-01  5.2249e-04  9.2681e-04  1.9948e-04  0:02:07 1598
   403  5.9800e-04  1.3268e-03  9.7394e-04  1.9635e-01  5.2349e-04  9.1814e-04  1.9860e-04  0:01:41 1597
   404  5.9920e-04  1.3157e-03  9.6355e-04  1.9501e-01  5.2477e-04  9.0994e-04  1.9761e-04  0:06:40 1596
   405  6.0090e-04  1.3043e-03  9.5399e-04  1.9359e-01  5.2637e-04  9.0249e-04  1.9703e-04  0:05:20 1595
   406  6.0311e-04  1.2929e-03  9.4539e-04  1.9224e-01  5.2828e-04  8.9542e-04  1.9646e-04  0:04:16 1594
   407  6.0583e-04  1.2815e-03  9.3787e-04  1.9100e-01  5.3053e-04  8.8846e-04  1.9569e-04  0:03:25 1593

  iter  continuity  x-velocity  y-velocity  z-velocity      energy           k       omega     time/iter
   408  6.0912e-04  1.2702e-03  9.3154e-04  1.8990e-01  5.3318e-04  8.8167e-04  1.9495e-04  0:02:44 1592
   409  6.1299e-04  1.2590e-03  9.2650e-04  1.8918e-01  5.3625e-04  8.7433e-04  1.9476e-04  0:02:11 1591
   410  6.1728e-04  1.2480e-03  9.2283e-04  1.8834e-01  5.3956e-04  8.6777e-04  1.9414e-04  0:01:45 1590
   411  6.2198e-04  1.2375e-03  9.2060e-04  1.8748e-01  5.4311e-04  8.6110e-04  1.9370e-04  0:01:24 1589
   412  6.2704e-04  1.2274e-03  9.1985e-04  1.8650e-01  5.4687e-04  8.5435e-04  1.9307e-04  0:06:24 1588
   413  6.3259e-04  1.2180e-03  9.2061e-04  1.8552e-01  5.5098e-04  8.4758e-04  1.9236e-04  0:05:07 1587
   414  6.3873e-04  1.2093e-03  9.2292e-04  1.8454e-01  5.5557e-04  8.3843e-04  1.9198e-04  0:04:06 1586
   415  6.4538e-04  1.2013e-03  9.2671e-04  1.8357e-01  5.6056e-04  8.2974e-04  1.9205e-04  0:03:16 1585
   416  6.5242e-04  1.1940e-03  9.3191e-04  1.8257e-01  5.6583e-04  8.2155e-04  1.9211e-04  0:02:37 1584
   417  6.5982e-04  1.1873e-03  9.3853e-04  1.8155e-01  5.7136e-04  8.1363e-04  1.9204e-04  0:02:06 1583
   418  6.6759e-04  1.1813e-03  9.4645e-04  1.8050e-01  5.7716e-04  8.0634e-04  1.9191e-04  0:01:40 1582

  iter  continuity  x-velocity  y-velocity  z-velocity      energy           k       omega     time/iter
   419  6.7565e-04  1.1759e-03  9.5567e-04  1.7944e-01  5.8318e-04  7.9928e-04  1.9123e-04  0:01:20 1581
   420  6.8400e-04  1.1711e-03  9.6613e-04  1.7836e-01  5.8941e-04  7.9267e-04  1.8990e-04  0:06:20 1580
   421  6.9256e-04  1.1669e-03  9.7769e-04  1.7722e-01  5.9578e-04  7.8656e-04  1.8898e-04  0:05:04 1579
   422  7.0126e-04  1.1632e-03  9.9025e-04  1.7606e-01  6.0225e-04  7.8012e-04  1.8825e-04  0:04:03 1578
   423  7.1000e-04  1.1599e-03  1.0037e-03  1.7489e-01  6.0870e-04  7.7386e-04  1.8748e-04  0:03:14 1577
   424  7.1872e-04  1.1569e-03  1.0180e-03  1.7372e-01  6.1507e-04  7.6790e-04  1.8695e-04  0:07:51 1576
   425  7.2735e-04  1.1543e-03  1.0331e-03  1.7254e-01  6.2132e-04  7.6186e-04  1.8634e-04  0:06:16 1575
   426  7.3580e-04  1.1518e-03  1.0488e-03  1.7152e-01  6.2735e-04  7.5628e-04  1.8567e-04  0:05:01 1574
   427  7.4405e-04  1.1497e-03  1.0649e-03  1.7058e-01  6.3316e-04  7.5085e-04  1.8516e-04  0:04:00 1573
   428  7.5203e-04  1.1478e-03  1.0813e-03  1.6968e-01  6.3869e-04  7.4515e-04  1.8441e-04  0:03:12 1572
   429  7.5971e-04  1.1460e-03  1.0980e-03  1.6881e-01  6.4391e-04  7.3911e-04  1.8376e-04  0:02:34 1571

  iter  continuity  x-velocity  y-velocity  z-velocity      energy           k       omega     time/iter
   430  7.6701e-04  1.1444e-03  1.1149e-03  1.6797e-01  6.4874e-04  7.3304e-04  1.8310e-04  0:02:03 1570
   431  7.7389e-04  1.1429e-03  1.1318e-03  1.6718e-01  6.5318e-04  7.2698e-04  1.8257e-04  0:01:38 1569
   432  7.8027e-04  1.1415e-03  1.1486e-03  1.6642e-01  6.5713e-04  7.2088e-04  1.8221e-04  0:06:32 1568
   433  7.8609e-04  1.1400e-03  1.1653e-03  1.6568e-01  6.6054e-04  7.1456e-04  1.8137e-04  0:05:14 1567
   434  7.9132e-04  1.1386e-03  1.1818e-03  1.6498e-01  6.6338e-04  7.0813e-04  1.8051e-04  0:04:11 1566
   435  7.9600e-04  1.1372e-03  1.1979e-03  1.6441e-01  6.6572e-04  7.0203e-04  1.7984e-04  0:03:20 1565
   436  7.9998e-04  1.1358e-03  1.2137e-03  1.6391e-01  6.6739e-04  6.9481e-04  1.7884e-04  0:02:40 1564
   437  8.0334e-04  1.1344e-03  1.2290e-03  1.6356e-01  6.6848e-04  6.8699e-04  1.7833e-04  0:02:08 1563
   438  8.0599e-04  1.1330e-03  1.2438e-03  1.6335e-01  6.6893e-04  6.7903e-04  1.7761e-04  0:01:42 1562
   439  8.0787e-04  1.1317e-03  1.2581e-03  1.6329e-01  6.6864e-04  6.7095e-04  1.7647e-04  0:06:34 1561
   440  8.0900e-04  1.1304e-03  1.2716e-03  1.6334e-01  6.6767e-04  6.6283e-04  1.7467e-04  0:05:15 1560

  iter  continuity  x-velocity  y-velocity  z-velocity      energy           k       omega     time/iter
   441  8.0945e-04  1.1292e-03  1.2845e-03  1.6349e-01  6.6608e-04  6.5529e-04  1.7316e-04  0:04:12 1559
   442  8.0920e-04  1.1281e-03  1.2968e-03  1.6375e-01  6.6386e-04  6.4819e-04  1.7169e-04  0:03:21 1558
   443  8.0825e-04  1.1271e-03  1.3083e-03  1.6411e-01  6.6102e-04  6.4152e-04  1.7027e-04  0:02:41 1557
   444  8.0676e-04  1.1263e-03  1.3189e-03  1.6459e-01  6.5775e-04  6.3408e-04  1.6885e-04  0:02:09 1556
   445  8.0467e-04  1.1256e-03  1.3287e-03  1.6513e-01  6.5397e-04  6.2632e-04  1.6720e-04  0:01:43 1555
   446  8.0197e-04  1.1251e-03  1.3376e-03  1.6578e-01  6.4966e-04  6.1760e-04  1.6558e-04  0:01:22 1554
   447  7.9872e-04  1.1248e-03  1.3456e-03  1.6653e-01  6.4489e-04  6.0885e-04  1.6366e-04  0:06:16 1553
   448  7.9496e-04  1.1239e-03  1.3530e-03  1.6741e-01  6.3973e-04  5.9995e-04  1.6134e-04  0:05:01 1552
   449  7.9075e-04  1.1231e-03  1.3595e-03  1.6840e-01  6.3425e-04  5.9101e-04  1.5858e-04  0:04:01 1551
   450  7.8619e-04  1.1231e-03  1.3649e-03  1.6948e-01  6.2854e-04  5.8211e-04  1.5602e-04  0:03:12 1550
   451  7.8133e-04  1.1233e-03  1.3692e-03  1.7067e-01  6.2264e-04  5.7301e-04  1.5354e-04  0:02:34 1549

  iter  continuity  x-velocity  y-velocity  z-velocity      energy           k       omega     time/iter
   452  7.7620e-04  1.1237e-03  1.3724e-03  1.7194e-01  6.1658e-04  5.6430e-04  1.5126e-04  0:02:03 1548
   453  7.7085e-04  1.1241e-03  1.3747e-03  1.7323e-01  6.1040e-04  5.5589e-04  1.4904e-04  0:01:38 1547
   454  7.6530e-04  1.1245e-03  1.3759e-03  1.7449e-01  6.0415e-04  5.4773e-04  1.4700e-04  0:01:19 1546
   455  7.5960e-04  1.1249e-03  1.3763e-03  1.7573e-01  5.9786e-04  5.3957e-04  1.4504e-04  0:06:12 1545
   456  7.5380e-04  1.1251e-03  1.3758e-03  1.7694e-01  5.9158e-04  5.3115e-04  1.4314e-04  0:04:57 1544
   457  7.4794e-04  1.1254e-03  1.3744e-03  1.7809e-01  5.8536e-04  5.2273e-04  1.4137e-04  0:03:58 1543
   458  7.4206e-04  1.1255e-03  1.3723e-03  1.7915e-01  5.7921e-04  5.1412e-04  1.3964e-04  0:03:10 1542
   459  7.3619e-04  1.1255e-03  1.3694e-03  1.8007e-01  5.7319e-04  5.0537e-04  1.3780e-04  0:02:32 1541
   460  7.3034e-04  1.1253e-03  1.3659e-03  1.8083e-01  5.6728e-04  4.9668e-04  1.3591e-04  0:02:01 1540
   461  7.2450e-04  1.1252e-03  1.3617e-03  1.8138e-01  5.6144e-04  4.8844e-04  1.3370e-04  0:01:37 1539
   462  7.1870e-04  1.1249e-03  1.3569e-03  1.8170e-01  5.5572e-04  4.8051e-04  1.3179e-04  0:01:18 1538

  iter  continuity  x-velocity  y-velocity  z-velocity      energy           k       omega     time/iter
   463  7.1302e-04  1.1241e-03  1.3516e-03  1.8175e-01  5.5017e-04  4.7268e-04  1.3028e-04  0:06:09 1537
   464  7.0748e-04  1.1228e-03  1.3458e-03  1.8150e-01  5.4481e-04  4.6504e-04  1.2887e-04  0:04:55 1536
   465  7.0210e-04  1.1212e-03  1.3395e-03  1.8097e-01  5.3967e-04  4.5770e-04  1.2741e-04  0:03:56 1535
   466  6.9688e-04  1.1192e-03  1.3328e-03  1.8018e-01  5.3473e-04  4.5036e-04  1.2581e-04  0:03:09 1534
   467  6.9184e-04  1.1169e-03  1.3258e-03  1.7916e-01  5.2999e-04  4.4295e-04  1.2390e-04  0:02:31 1533
   468  6.8699e-04  1.1141e-03  1.3184e-03  1.7795e-01  5.2547e-04  4.3571e-04  1.2275e-04  0:02:01 1532
   469  6.8235e-04  1.1109e-03  1.3108e-03  1.7657e-01  5.2116e-04  4.2871e-04  1.2161e-04  0:01:36 1531
   470  6.7788e-04  1.1073e-03  1.3030e-03  1.7502e-01  5.1704e-04  4.2179e-04  1.2030e-04  0:06:23 1530
   471  6.7362e-04  1.1033e-03  1.2951e-03  1.7337e-01  5.1310e-04  4.1489e-04  1.1897e-04  0:05:06 1529
   472  6.6959e-04  1.0989e-03  1.2871e-03  1.7162e-01  5.0939e-04  4.0785e-04  1.1772e-04  0:04:05 1528
   473  6.6579e-04  1.0941e-03  1.2790e-03  1.6979e-01  5.0589e-04  4.0106e-04  1.1621e-04  0:03:16 1527

  iter  continuity  x-velocity  y-velocity  z-velocity      energy           k       omega     time/iter
   474  6.6221e-04  1.0891e-03  1.2710e-03  1.6793e-01  5.0260e-04  3.9437e-04  1.1503e-04  0:02:37 1526
   475  6.5891e-04  1.0837e-03  1.2630e-03  1.6607e-01  4.9955e-04  3.8795e-04  1.1396e-04  0:02:05 1525
   476  6.5588e-04  1.0781e-03  1.2550e-03  1.6422e-01  4.9679e-04  3.8179e-04  1.1290e-04  0:06:45 1524
   477  6.5316e-04  1.0723e-03  1.2473e-03  1.6237e-01  4.9431e-04  3.7577e-04  1.1198e-04  0:05:24 1523
   478  6.5075e-04  1.0662e-03  1.2396e-03  1.6053e-01  4.9213e-04  3.6986e-04  1.1089e-04  0:04:19 1522
   479  6.4865e-04  1.0599e-03  1.2322e-03  1.5869e-01  4.9026e-04  3.6412e-04  1.0972e-04  0:03:27 1521
   480  6.4685e-04  1.0535e-03  1.2250e-03  1.5680e-01  4.8869e-04  3.5861e-04  1.0861e-04  0:02:45 1520
   481  6.4533e-04  1.0468e-03  1.2180e-03  1.5485e-01  4.8739e-04  3.5341e-04  1.0761e-04  0:02:12 1519
   482  6.4410e-04  1.0401e-03  1.2114e-03  1.5282e-01  4.8636e-04  3.4844e-04  1.0662e-04  0:06:49 1518
   483  6.4313e-04  1.0333e-03  1.2049e-03  1.5070e-01  4.8558e-04  3.4373e-04  1.0573e-04  0:05:27 1517
   484  6.4237e-04  1.0265e-03  1.1988e-03  1.4854e-01  4.8499e-04  3.3917e-04  1.0487e-04  0:04:22 1516

  iter  continuity  x-velocity  y-velocity  z-velocity      energy           k       omega     time/iter
   485  6.4181e-04  1.0197e-03  1.1930e-03  1.4634e-01  4.8458e-04  3.3473e-04  1.0398e-04  0:03:29 1515
   486  6.4142e-04  1.0129e-03  1.1876e-03  1.4417e-01  4.8432e-04  3.3035e-04  1.0300e-04  0:02:47 1514
   487  6.4119e-04  1.0061e-03  1.1825e-03  1.4202e-01  4.8421e-04  3.2603e-04  1.0203e-04  0:02:14 1513
   488  6.4110e-04  9.9948e-04  1.1777e-03  1.3987e-01  4.8421e-04  3.2177e-04  1.0114e-04  0:06:49 1512
   489  6.4111e-04  9.9292e-04  1.1733e-03  1.3768e-01  4.8430e-04  3.1757e-04  1.0030e-04  0:05:27 1511
   490  6.4120e-04  9.8648e-04  1.1693e-03  1.3544e-01  4.8446e-04  3.1341e-04  9.9424e-05  0:04:22 1510
   491  6.4136e-04  9.8019e-04  1.1656e-03  1.3315e-01  4.8467e-04  3.0931e-04  9.8352e-05  0:03:29 1509
   492  6.4154e-04  9.7405e-04  1.1622e-03  1.3152e-01  4.8488e-04  3.0529e-04  9.7610e-05  0:02:47 1508
   493  6.4172e-04  9.6807e-04  1.1590e-03  1.2995e-01  4.8509e-04  3.0134e-04  9.6774e-05  0:02:14 1507
   494  6.4189e-04  9.6227e-04  1.1562e-03  1.2820e-01  4.8527e-04  2.9744e-04  9.5885e-05  0:06:48 1506
   495  6.4201e-04  9.5664e-04  1.1535e-03  1.2618e-01  4.8540e-04  2.9351e-04  9.5043e-05  0:05:26 1505

  iter  continuity  x-velocity  y-velocity  z-velocity      energy           k       omega     time/iter
   496  6.4207e-04  9.5121e-04  1.1510e-03  1.2389e-01  4.8544e-04  2.8956e-04  9.4216e-05  0:04:21 1504
   497  6.4202e-04  9.4596e-04  1.1487e-03  1.2145e-01  4.8538e-04  2.8572e-04  9.3483e-05  0:03:29 1503
   498  6.4185e-04  9.4085e-04  1.1465e-03  1.1890e-01  4.8518e-04  2.8199e-04  9.2671e-05  0:02:47 1502
   499  6.4153e-04  9.3600e-04  1.1444e-03  1.1631e-01  4.8483e-04  2.7838e-04  9.1910e-05  0:02:13 1501
   500  6.4105e-04  9.3132e-04  1.1423e-03  1.1372e-01  4.8433e-04  2.7490e-04  9.1145e-05  0:06:47 1500
   501  6.4036e-04  9.2683e-04  1.1403e-03  1.1118e-01  4.8360e-04  2.7152e-04  9.0416e-05  0:05:25 1499
   502  6.3942e-04  9.2252e-04  1.1383e-03  1.0871e-01  4.8260e-04  2.6815e-04  8.9739e-05  0:04:20 1498
   503  6.3824e-04  9.1840e-04  1.1363e-03  1.0633e-01  4.8137e-04  2.6477e-04  8.8997e-05  0:03:28 1497
   504  6.3683e-04  9.1445e-04  1.1343e-03  1.0404e-01  4.7992e-04  2.6139e-04  8.7978e-05  0:02:46 1496
   505  6.3517e-04  9.1068e-04  1.1322e-03  1.0186e-01  4.7822e-04  2.5811e-04  8.7105e-05  0:02:13 1495
   506  6.3325e-04  9.0707e-04  1.1301e-03  9.9755e-02  4.7628e-04  2.5485e-04  8.6300e-05  0:01:46 1494

  iter  continuity  x-velocity  y-velocity  z-velocity      energy           k       omega     time/iter
   507  6.3106e-04  9.0362e-04  1.1278e-03  9.7777e-02  4.7407e-04  2.5173e-04  8.5530e-05  0:06:23 1493
   508  6.2855e-04  9.0036e-04  1.1254e-03  9.5924e-02  4.7155e-04  2.4870e-04  8.4760e-05  0:05:07 1492
   509  6.2575e-04  8.9727e-04  1.1228e-03  9.4173e-02  4.6875e-04  2.4576e-04  8.3893e-05  0:04:05 1491
   510  6.2268e-04  8.9432e-04  1.1201e-03  9.2578e-02  4.6570e-04  2.4284e-04  8.2991e-05  0:03:16 1490
   511  6.1935e-04  8.9153e-04  1.1172e-03  9.1122e-02  4.6243e-04  2.3999e-04  8.2074e-05  0:02:37 1489
   512  6.1578e-04  8.8889e-04  1.1141e-03  8.9799e-02  4.5894e-04  2.3717e-04  8.1166e-05  0:07:03 1488
   513  6.1197e-04  8.8637e-04  1.1108e-03  8.8582e-02  4.5525e-04  2.3436e-04  8.0271e-05  0:05:38 1487
   514  6.0792e-04  8.8396e-04  1.1072e-03  8.7439e-02  4.5136e-04  2.3153e-04  7.9400e-05  0:04:30 1486
   515  6.0364e-04  8.8165e-04  1.1034e-03  8.6376e-02  4.4727e-04  2.2867e-04  7.8533e-05  0:03:36 1485
   516  5.9912e-04  8.7942e-04  1.0993e-03  8.5341e-02  4.4298e-04  2.2580e-04  7.7660e-05  0:02:53 1484
   517  5.9434e-04  8.7721e-04  1.0948e-03  8.4219e-02  4.3843e-04  2.2293e-04  7.6787e-05  0:02:18 1483

  iter  continuity  x-velocity  y-velocity  z-velocity      energy           k       omega     time/iter
   518  5.8937e-04  8.7508e-04  1.0901e-03  8.3241e-02  4.3376e-04  2.2008e-04  7.5925e-05  0:06:47 1482
   519  5.8424e-04  8.7302e-04  1.0850e-03  8.2364e-02  4.2896e-04  2.1726e-04  7.5079e-05  0:05:25 1481
   520  5.7895e-04  8.7101e-04  1.0797e-03  8.1555e-02  4.2405e-04  2.1441e-04  7.4243e-05  0:04:20 1480
   521  5.7352e-04  8.6902e-04  1.0741e-03  8.0815e-02  4.1905e-04  2.1158e-04  7.3396e-05  0:03:28 1479
   522  5.6796e-04  8.6704e-04  1.0681e-03  8.0138e-02  4.1397e-04  2.0891e-04  7.2533e-05  0:02:46 1478
   523  5.6229e-04  8.6504e-04  1.0619e-03  7.9519e-02  4.0882e-04  2.0632e-04  7.1664e-05  0:02:13 1477
   524  5.5652e-04  8.6302e-04  1.0555e-03  7.8944e-02  4.0362e-04  2.0374e-04  7.0745e-05  0:06:41 1476
   525  5.5067e-04  8.6095e-04  1.0487e-03  7.8408e-02  3.9838e-04  2.0119e-04  6.9836e-05  0:05:21 1475
   526  5.4475e-04  8.5882e-04  1.0417e-03  7.7912e-02  3.9311e-04  1.9875e-04  6.8831e-05  0:04:17 1474
   527  5.3878e-04  8.5659e-04  1.0345e-03  7.7461e-02  3.8784e-04  1.9633e-04  6.7889e-05  0:03:25 1473
   528  5.3278e-04  8.5426e-04  1.0269e-03  7.7016e-02  3.8258e-04  1.9397e-04  6.7062e-05  0:02:44 1472

  iter  continuity  x-velocity  y-velocity  z-velocity      energy           k       omega     time/iter
   529  5.2676e-04  8.5181e-04  1.0192e-03  7.6607e-02  3.7734e-04  1.9130e-04  6.6216e-05  0:02:11 1471
   530  5.2075e-04  8.4923e-04  1.0112e-03  7.6236e-02  3.7213e-04  1.8851e-04  6.5364e-05  0:06:39 1470
   531  5.1475e-04  8.4651e-04  1.0029e-03  7.5896e-02  3.6699e-04  1.8576e-04  6.4435e-05  0:05:19 1469
   532  5.0880e-04  8.4366e-04  9.9454e-04  7.5574e-02  3.6192e-04  1.8298e-04  6.3466e-05  0:04:15 1468
   533  5.0289e-04  8.4068e-04  9.8594e-04  7.5264e-02  3.5695e-04  1.8020e-04  6.2635e-05  0:03:24 1467
   534  4.9707e-04  8.3749e-04  9.7718e-04  7.4965e-02  3.5208e-04  1.7746e-04  6.1801e-05  0:02:43 1466
   535  4.9132e-04  8.3409e-04  9.6827e-04  7.4670e-02  3.4733e-04  1.7467e-04  6.0929e-05  0:02:10 1465
   536  4.8568e-04  8.3049e-04  9.5922e-04  7.4387e-02  3.4270e-04  1.7154e-04  6.0046e-05  0:06:37 1464
   537  4.8013e-04  8.2668e-04  9.5006e-04  7.4126e-02  3.3820e-04  1.6836e-04  5.9107e-05  0:05:17 1463
   538  4.7470e-04  8.2268e-04  9.4079e-04  7.3864e-02  3.3383e-04  1.6502e-04  5.8197e-05  0:04:14 1462
   539  4.6940e-04  8.1848e-04  9.3144e-04  7.3670e-02  3.2961e-04  1.6181e-04  5.7316e-05  0:03:23 1461

  iter  continuity  x-velocity  y-velocity  z-velocity      energy           k       omega     time/iter
   540  4.6423e-04  8.1408e-04  9.2202e-04  7.3481e-02  3.2555e-04  1.5872e-04  5.6452e-05  0:02:42 1460
   541  4.5919e-04  8.0948e-04  9.1255e-04  7.3297e-02  3.2163e-04  1.5567e-04  5.5623e-05  0:02:10 1459
   542  4.5430e-04  8.0469e-04  9.0306e-04  7.3131e-02  3.1787e-04  1.5270e-04  5.4798e-05  0:06:35 1458
   543  4.4955e-04  7.9971e-04  8.9356e-04  7.2989e-02  3.1426e-04  1.4978e-04  5.3987e-05  0:05:16 1457
   544  4.4496e-04  7.9451e-04  8.8408e-04  7.2872e-02  3.1080e-04  1.4696e-04  5.3191e-05  0:04:13 1456
   545  4.4051e-04  7.8916e-04  8.7463e-04  7.2786e-02  3.0750e-04  1.4432e-04  5.2365e-05  0:03:22 1455
   546  4.3621e-04  7.8365e-04  8.6523e-04  7.2713e-02  3.0435e-04  1.4180e-04  5.1567e-05  0:02:41 1454
   547  4.3207e-04  7.7800e-04  8.5591e-04  7.2657e-02  3.0134e-04  1.3932e-04  5.0779e-05  0:07:00 1453
   548  4.2807e-04  7.7222e-04  8.4669e-04  7.2643e-02  2.9848e-04  1.3688e-04  4.9984e-05  0:05:35 1452
   549  4.2421e-04  7.6631e-04  8.3757e-04  7.2658e-02  2.9576e-04  1.3455e-04  4.9184e-05  0:04:28 1451
   550  4.2050e-04  7.6029e-04  8.2858e-04  7.2697e-02  2.9317e-04  1.3233e-04  4.8426e-05  0:03:34 1450

  iter  continuity  x-velocity  y-velocity  z-velocity      energy           k       omega     time/iter
   551  4.1693e-04  7.5418e-04  8.1973e-04  7.2749e-02  2.9071e-04  1.3026e-04  4.7717e-05  0:02:51 1449
   552  4.1349e-04  7.4799e-04  8.1103e-04  7.2805e-02  2.8837e-04  1.2827e-04  4.7005e-05  0:02:17 1448
   553  4.1018e-04  7.4175e-04  8.0248e-04  7.2850e-02  2.8614e-04  1.2636e-04  4.6283e-05  0:01:50 1447
   554  4.0699e-04  7.3547e-04  7.9411e-04  7.2883e-02  2.8401e-04  1.2458e-04  4.5541e-05  0:06:17 1446
   555  4.0391e-04  7.2916e-04  7.8591e-04  7.2894e-02  2.8199e-04  1.2287e-04  4.4808e-05  0:05:01 1445
   556  4.0094e-04  7.2284e-04  7.7789e-04  7.2876e-02  2.8006e-04  1.2118e-04  4.4088e-05  0:04:01 1444
   557  3.9807e-04  7.1653e-04  7.7004e-04  7.2823e-02  2.7822e-04  1.1958e-04  4.3402e-05  0:03:13 1443
   558  3.9530e-04  7.1024e-04  7.6238e-04  7.2741e-02  2.7645e-04  1.1802e-04  4.2735e-05  0:02:34 1442
   559  3.9262e-04  7.0398e-04  7.5489e-04  7.2612e-02  2.7476e-04  1.1651e-04  4.2087e-05  0:06:51 1441
   560  3.9002e-04  6.9776e-04  7.4758e-04  7.2436e-02  2.7313e-04  1.1509e-04  4.1461e-05  0:05:29 1440
   561  3.8748e-04  6.9160e-04  7.4045e-04  7.2183e-02  2.7154e-04  1.1385e-04  4.0850e-05  0:04:23 1439

  iter  continuity  x-velocity  y-velocity  z-velocity      energy           k       omega     time/iter
   562  3.8500e-04  6.8551e-04  7.3350e-04  7.1845e-02  2.7000e-04  1.1264e-04  4.0240e-05  0:03:30 1438
   563  3.8257e-04  6.7949e-04  7.2671e-04  7.1432e-02  2.6848e-04  1.1145e-04  3.9593e-05  0:02:48 1437
   564  3.8017e-04  6.7356e-04  7.2009e-04  7.0926e-02  2.6699e-04  1.1035e-04  3.8958e-05  0:02:14 1436
   565  3.7780e-04  6.6773e-04  7.1364e-04  7.0319e-02  2.6550e-04  1.0928e-04  3.8370e-05  0:06:34 1435
   566  3.7545e-04  6.6200e-04  7.0735e-04  6.9620e-02  2.6402e-04  1.0831e-04  3.7861e-05  0:05:15 1434
   567  3.7310e-04  6.5639e-04  7.0120e-04  6.8839e-02  2.6252e-04  1.0747e-04  3.7359e-05  0:04:12 1433
   568  3.7075e-04  6.5089e-04  6.9520e-04  6.7961e-02  2.6101e-04  1.0664e-04  3.6870e-05  0:03:21 1432
   569  3.6839e-04  6.4551e-04  6.8933e-04  6.6990e-02  2.5947e-04  1.0588e-04  3.6397e-05  0:02:41 1431
   570  3.6600e-04  6.4026e-04  6.8358e-04  6.5928e-02  2.5790e-04  1.0520e-04  3.5932e-05  0:02:09 1430
   571  3.6359e-04  6.3514e-04  6.7794e-04  6.4778e-02  2.5629e-04  1.0458e-04  3.5481e-05  0:06:29 1429
   572  3.6115e-04  6.3015e-04  6.7240e-04  6.3538e-02  2.5464e-04  1.0398e-04  3.5039e-05  0:05:11 1428

  iter  continuity  x-velocity  y-velocity  z-velocity      energy           k       omega     time/iter
   573  3.5865e-04  6.2522e-04  6.6696e-04  6.2214e-02  2.5291e-04  1.0339e-04  3.4606e-05  0:04:08 1427
   574  3.5609e-04  6.2045e-04  6.6159e-04  6.0809e-02  2.5112e-04  1.0282e-04  3.4183e-05  0:03:19 1426
   575  3.5348e-04  6.1586e-04  6.5629e-04  5.9335e-02  2.4927e-04  1.0232e-04  3.3773e-05  0:02:39 1425
   576  3.5082e-04  6.1141e-04  6.5104e-04  5.7798e-02  2.4736e-04  1.0186e-04  3.3376e-05  0:02:07 1424
   577  3.4809e-04  6.0709e-04  6.4584e-04  5.6231e-02  2.4538e-04  1.0141e-04  3.2990e-05  0:06:26 1423
   578  3.4529e-04  6.0289e-04  6.4067e-04  5.4489e-02  2.4333e-04  1.0099e-04  3.2606e-05  0:05:09 1422
   579  3.4242e-04  5.9881e-04  6.3552e-04  5.2639e-02  2.4120e-04  1.0056e-04  3.2235e-05  0:04:07 1421
   580  3.3948e-04  5.9485e-04  6.3039e-04  5.0721e-02  2.3901e-04  1.0014e-04  3.1913e-05  0:03:17 1420
   581  3.3647e-04  5.9101e-04  6.2526e-04  4.8783e-02  2.3673e-04  9.9724e-05  3.1589e-05  0:02:38 1419
   582  3.3338e-04  5.8729e-04  6.2012e-04  4.6879e-02  2.3438e-04  9.9299e-05  3.1265e-05  0:02:06 1418
   583  3.3018e-04  5.8366e-04  6.1497e-04  4.5028e-02  2.3192e-04  9.8865e-05  3.0943e-05  0:06:24 1417

  iter  continuity  x-velocity  y-velocity  z-velocity      energy           k       omega     time/iter
   584  3.2694e-04  5.8013e-04  6.0980e-04  4.3239e-02  2.2942e-04  9.8443e-05  3.0622e-05  0:05:07 1416
   585  3.2367e-04  5.7671e-04  6.0460e-04  4.1503e-02  2.2692e-04  9.8009e-05  3.0306e-05  0:04:06 1415
   586  3.2029e-04  5.7340e-04  5.9938e-04  3.9820e-02  2.2429e-04  9.7532e-05  2.9993e-05  0:03:16 1414
   587  3.1688e-04  5.7018e-04  5.9412e-04  3.8188e-02  2.2164e-04  9.7060e-05  2.9683e-05  0:02:37 1413
   588  3.1342e-04  5.6706e-04  5.8881e-04  3.6612e-02  2.1897e-04  9.6618e-05  2.9373e-05  0:02:05 1412
   589  3.0988e-04  5.6402e-04  5.8346e-04  3.5094e-02  2.1621e-04  9.6171e-05  2.9066e-05  0:06:22 1411
   590  3.0627e-04  5.6104e-04  5.7805e-04  3.3632e-02  2.1337e-04  9.5727e-05  2.8762e-05  0:05:06 1410
   591  3.0260e-04  5.5813e-04  5.7258e-04  3.2228e-02  2.1048e-04  9.5285e-05  2.8462e-05  0:04:04 1409
   592  2.9889e-04  5.5527e-04  5.6705e-04  3.0885e-02  2.0756e-04  9.4857e-05  2.8164e-05  0:03:15 1408
   593  2.9516e-04  5.5246e-04  5.6146e-04  2.9600e-02  2.0463e-04  9.4429e-05  2.7878e-05  0:02:36 1407
   594  2.9141e-04  5.4968e-04  5.5581e-04  2.8416e-02  2.0169e-04  9.4006e-05  2.7601e-05  0:02:05 1406

  iter  continuity  x-velocity  y-velocity  z-velocity      energy           k       omega     time/iter
   595  2.8765e-04  5.4693e-04  5.5009e-04  2.7329e-02  1.9874e-04  9.3586e-05  2.7329e-05  0:06:21 1405
   596  2.8388e-04  5.4421e-04  5.4433e-04  2.6327e-02  1.9580e-04  9.3171e-05  2.7055e-05  0:05:04 1404
   597  2.8011e-04  5.4149e-04  5.3851e-04  2.5405e-02  1.9288e-04  9.2749e-05  2.6777e-05  0:04:03 1403
   598  2.7635e-04  5.3877e-04  5.3265e-04  2.4599e-02  1.8996e-04  9.2329e-05  2.6501e-05  0:03:15 1402
   599  2.7259e-04  5.3605e-04  5.2675e-04  2.3865e-02  1.8706e-04  9.1904e-05  2.6226e-05  0:02:36 1401
   600  2.6885e-04  5.3331e-04  5.2082e-04  2.3195e-02  1.8418e-04  9.1490e-05  2.5949e-05  0:06:44 1400
   601  2.6513e-04  5.3055e-04  5.1486e-04  2.2584e-02  1.8134e-04  9.1084e-05  2.5674e-05  0:05:23 1399
   602  2.6144e-04  5.2777e-04  5.0889e-04  2.2029e-02  1.7852e-04  9.0668e-05  2.5396e-05  0:04:18 1398
   603  2.5778e-04  5.2495e-04  5.0290e-04  2.1533e-02  1.7575e-04  9.0242e-05  2.5128e-05  0:03:27 1397
   604  2.5417e-04  5.2208e-04  4.9691e-04  2.1082e-02  1.7303e-04  8.9800e-05  2.4872e-05  0:02:45 1396
   605  2.5060e-04  5.1917e-04  4.9090e-04  2.0657e-02  1.7036e-04  8.9349e-05  2.4622e-05  0:02:12 1395

  iter  continuity  x-velocity  y-velocity  z-velocity      energy           k       omega     time/iter
   606  2.4710e-04  5.1621e-04  4.8490e-04  2.0268e-02  1.6776e-04  8.8905e-05  2.4368e-05  0:06:24 1394
   607  2.4365e-04  5.1320e-04  4.7888e-04  1.9912e-02  1.6522e-04  8.8449e-05  2.4116e-05  0:05:07 1393
   608  2.4027e-04  5.1012e-04  4.7287e-04  1.9581e-02  1.6274e-04  8.7996e-05  2.3867e-05  0:04:06 1392
   609  2.3695e-04  5.0699e-04  4.6686e-04  1.9261e-02  1.6034e-04  8.7524e-05  2.3620e-05  0:03:16 1391
   610  2.3372e-04  5.0380e-04  4.6086e-04  1.8960e-02  1.5802e-04  8.7049e-05  2.3370e-05  0:02:37 1390
   611  2.3056e-04  5.0056e-04  4.5486e-04  1.8649e-02  1.5577e-04  8.6563e-05  2.3129e-05  0:02:05 1389
   612  2.2748e-04  4.9725e-04  4.4889e-04  1.8355e-02  1.5360e-04  8.6065e-05  2.2881e-05  0:06:18 1388
   613  2.2448e-04  4.9390e-04  4.4294e-04  1.8097e-02  1.5151e-04  8.5568e-05  2.2639e-05  0:05:02 1387
   614  2.2156e-04  4.9049e-04  4.3703e-04  1.7877e-02  1.4950e-04  8.5048e-05  2.2409e-05  0:04:02 1386
   615  2.1872e-04  4.8704e-04  4.3117e-04  1.7690e-02  1.4756e-04  8.4505e-05  2.2172e-05  0:03:13 1385
   616  2.1596e-04  4.8355e-04  4.2537e-04  1.7534e-02  1.4570e-04  8.3940e-05  2.1946e-05  0:02:34 1384

  iter  continuity  x-velocity  y-velocity  z-velocity      energy           k       omega     time/iter
   617  2.1329e-04  4.8001e-04  4.1962e-04  1.7395e-02  1.4391e-04  8.3365e-05  2.1726e-05  0:02:03 1383
   618  2.1072e-04  4.7644e-04  4.1394e-04  1.7265e-02  1.4223e-04  8.2782e-05  2.1506e-05  0:06:15 1382
   619  2.0824e-04  4.7284e-04  4.0834e-04  1.7145e-02  1.4063e-04  8.2195e-05  2.1285e-05  0:05:00 1381
   620  2.0582e-04  4.6921e-04  4.0281e-04  1.7032e-02  1.3907e-04  8.1591e-05  2.1061e-05  0:04:00 1380
   621  2.0346e-04  4.6556e-04  3.9738e-04  1.6924e-02  1.3755e-04  8.0971e-05  2.0851e-05  0:03:12 1379
   622  2.0117e-04  4.6191e-04  3.9204e-04  1.6820e-02  1.3609e-04  8.0327e-05  2.0644e-05  0:07:09 1378
   623  1.9894e-04  4.5825e-04  3.8680e-04  1.6720e-02  1.3467e-04  7.9686e-05  2.0445e-05  0:05:43 1377
   624  1.9678e-04  4.5461e-04  3.8167e-04  1.6629e-02  1.3331e-04  7.9029e-05  2.0255e-05  0:04:34 1376
[...]
  1838  1.0718e-06  1.8061e-06  1.7288e-06  1.3902e-04  7.8745e-07  4.0904e-07  1.7039e-07  0:00:28  162
  1839  1.0672e-06  1.7981e-06  1.7216e-06  1.3841e-04  7.8396e-07  4.0668e-07  1.6948e-07  0:00:22  161
  1840  1.0626e-06  1.7900e-06  1.7145e-06  1.3781e-04  7.8048e-07  4.0434e-07  1.6858e-07  0:00:18  160
  1841  1.0580e-06  1.7820e-06  1.7073e-06  1.3720e-04  7.7701e-07  4.0200e-07  1.6768e-07  0:00:14  159
  1842  1.0534e-06  1.7740e-06  1.7002e-06  1.3660e-04  7.7354e-07  3.9968e-07  1.6679e-07  0:00:11  158
  1843  1.0488e-06  1.7661e-06  1.6930e-06  1.3599e-04  7.7008e-07  3.9736e-07  1.6590e-07  0:00:09  157
  1844  1.0442e-06  1.7582e-06  1.6859e-06  1.3539e-04  7.6663e-07  3.9505e-07  1.6502e-07  0:00:07  156
  1845  1.0397e-06  1.7503e-06  1.6789e-06  1.3478e-04  7.6318e-07  3.9275e-07  1.6414e-07  0:00:06  155
  1846  1.0351e-06  1.7425e-06  1.6718e-06  1.3417e-04  7.5974e-07  3.9046e-07  1.6326e-07  0:00:04  154
  1847  1.0306e-06  1.7347e-06  1.6647e-06  1.3357e-04  7.5631e-07  3.8817e-07  1.6239e-07  0:00:04  153
  1848  1.0260e-06  1.7269e-06  1.6577e-06  1.3296e-04  7.5289e-07  3.8590e-07  1.6153e-07  0:00:03  152

  iter  continuity  x-velocity  y-velocity  z-velocity      energy           k       omega     time/iter
  1849  1.0215e-06  1.7191e-06  1.6506e-06  1.3235e-04  7.4947e-07  3.8365e-07  1.6066e-07  0:00:32  151
  1850  1.0170e-06  1.7114e-06  1.6436e-06  1.3174e-04  7.4606e-07  3.8140e-07  1.5980e-07  0:00:26  150
  1851  1.0125e-06  1.7037e-06  1.6366e-06  1.3113e-04  7.4266e-07  3.7916e-07  1.5895e-07  0:00:20  149
  1852  1.0080e-06  1.6961e-06  1.6296e-06  1.3052e-04  7.3927e-07  3.7694e-07  1.5809e-07  0:00:16  148
  1853  1.0035e-06  1.6885e-06  1.6227e-06  1.2992e-04  7.3589e-07  3.7472e-07  1.5724e-07  0:00:13  147
  1854  9.9901e-07  1.6809e-06  1.6157e-06  1.2931e-04  7.3251e-07  3.7252e-07  1.5640e-07  0:00:10  146
  1855  9.9454e-07  1.6733e-06  1.6087e-06  1.2870e-04  7.2914e-07  3.7032e-07  1.5556e-07  0:00:08  145
  1856  9.9008e-07  1.6658e-06  1.6018e-06  1.2809e-04  7.2578e-07  3.6814e-07  1.5472e-07  0:00:06  144
  1857  9.8563e-07  1.6583e-06  1.5949e-06  1.2748e-04  7.2243e-07  3.6596e-07  1.5389e-07  0:00:05  143
  1858  9.8119e-07  1.6508e-06  1.5880e-06  1.2688e-04  7.1909e-07  3.6379e-07  1.5306e-07  0:00:04  142
  1859  9.7676e-07  1.6434e-06  1.5811e-06  1.2627e-04  7.1575e-07  3.6164e-07  1.5223e-07  0:00:03  141

  iter  continuity  x-velocity  y-velocity  z-velocity      energy           k       omega     time/iter
  1860  9.7234e-07  1.6360e-06  1.5742e-06  1.2566e-04  7.1243e-07  3.5949e-07  1.5141e-07  0:00:03  140
  1861  9.6793e-07  1.6286e-06  1.5673e-06  1.2506e-04  7.0911e-07  3.5736e-07  1.5060e-07  0:00:30  139
  1862  9.6353e-07  1.6213e-06  1.5605e-06  1.2445e-04  7.0581e-07  3.5523e-07  1.4978e-07  0:00:24  138
  1863  9.5915e-07  1.6139e-06  1.5536e-06  1.2385e-04  7.0251e-07  3.5312e-07  1.4897e-07  0:00:19  137
  1864  9.5477e-07  1.6066e-06  1.5468e-06  1.2325e-04  6.9923e-07  3.5101e-07  1.4817e-07  0:00:15  136
  1865  9.5041e-07  1.5994e-06  1.5400e-06  1.2265e-04  6.9595e-07  3.4892e-07  1.4737e-07  0:00:12  135
  1866  9.4606e-07  1.5921e-06  1.5332e-06  1.2205e-04  6.9268e-07  3.4684e-07  1.4658e-07  0:00:09  134
  1867  9.4172e-07  1.5849e-06  1.5264e-06  1.2145e-04  6.8943e-07  3.4477e-07  1.4578e-07  0:00:07  133
  1868  9.3740e-07  1.5778e-06  1.5196e-06  1.2085e-04  6.8618e-07  3.4270e-07  1.4500e-07  0:00:06  132
  1869  9.3308e-07  1.5706e-06  1.5129e-06  1.2025e-04  6.8295e-07  3.4065e-07  1.4421e-07  0:00:05  131
  1870  9.2878e-07  1.5635e-06  1.5061e-06  1.1966e-04  6.7972e-07  3.3861e-07  1.4343e-07  0:00:04  130

  iter  continuity  x-velocity  y-velocity  z-velocity      energy           k       omega     time/iter
  1871  9.2450e-07  1.5564e-06  1.4994e-06  1.1907e-04  6.7651e-07  3.3658e-07  1.4266e-07  0:00:03  129
  1872  9.2022e-07  1.5493e-06  1.4927e-06  1.1848e-04  6.7331e-07  3.3457e-07  1.4188e-07  0:00:28  128
  1873  9.1596e-07  1.5423e-06  1.4860e-06  1.1789e-04  6.7012e-07  3.3256e-07  1.4112e-07  0:00:22  127
  1874  9.1171e-07  1.5353e-06  1.4793e-06  1.1730e-04  6.6694e-07  3.3057e-07  1.4035e-07  0:00:18  126
  1875  9.0748e-07  1.5283e-06  1.4727e-06  1.1671e-04  6.6377e-07  3.2859e-07  1.3959e-07  0:00:14  125
  1876  9.0326e-07  1.5213e-06  1.4660e-06  1.1613e-04  6.6062e-07  3.2662e-07  1.3884e-07  0:00:11  124
  1877  8.9905e-07  1.5144e-06  1.4594e-06  1.1554e-04  6.5747e-07  3.2466e-07  1.3809e-07  0:00:09  123
  1878  8.9486e-07  1.5075e-06  1.4528e-06  1.1496e-04  6.5434e-07  3.2271e-07  1.3734e-07  0:00:07  122
  1879  8.9068e-07  1.5006e-06  1.4462e-06  1.1438e-04  6.5122e-07  3.2077e-07  1.3660e-07  0:00:06  121
  1880  8.8651e-07  1.4938e-06  1.4396e-06  1.1380e-04  6.4811e-07  3.1885e-07  1.3586e-07  0:00:04  120
  1881  8.8236e-07  1.4869e-06  1.4330e-06  1.1323e-04  6.4501e-07  3.1693e-07  1.3512e-07  0:00:03  119

  iter  continuity  x-velocity  y-velocity  z-velocity      energy           k       omega     time/iter
  1882  8.7823e-07  1.4802e-06  1.4265e-06  1.1265e-04  6.4193e-07  3.1503e-07  1.3439e-07  0:00:03  118
  1883  8.7411e-07  1.4734e-06  1.4199e-06  1.1208e-04  6.3886e-07  3.1314e-07  1.3367e-07  0:00:02  117
  1884  8.7000e-07  1.4667e-06  1.4134e-06  1.1151e-04  6.3579e-07  3.1126e-07  1.3295e-07  0:00:02  116
  1885  8.6591e-07  1.4600e-06  1.4069e-06  1.1094e-04  6.3275e-07  3.0939e-07  1.3223e-07  0:00:24  115
  1886  8.6183e-07  1.4533e-06  1.4005e-06  1.1037e-04  6.2971e-07  3.0754e-07  1.3152e-07  0:00:19  114
  1887  8.5777e-07  1.4466e-06  1.3940e-06  1.0980e-04  6.2668e-07  3.0569e-07  1.3081e-07  0:00:15  113
  1888  8.5372e-07  1.4400e-06  1.3876e-06  1.0924e-04  6.2367e-07  3.0386e-07  1.3010e-07  0:00:12  112
  1889  8.4969e-07  1.4334e-06  1.3812e-06  1.0867e-04  6.2067e-07  3.0205e-07  1.2940e-07  0:00:10  111
  1890  8.4567e-07  1.4268e-06  1.3748e-06  1.0811e-04  6.1768e-07  3.0024e-07  1.2870e-07  0:00:08  110
  1891  8.4166e-07  1.4203e-06  1.3684e-06  1.0755e-04  6.1471e-07  2.9845e-07  1.2801e-07  0:00:06  109
  1892  8.3768e-07  1.4138e-06  1.3620e-06  1.0699e-04  6.1174e-07  2.9667e-07  1.2732e-07  0:00:05  108

  iter  continuity  x-velocity  y-velocity  z-velocity      energy           k       omega     time/iter
  1893  8.3370e-07  1.4073e-06  1.3557e-06  1.0643e-04  6.0879e-07  2.9490e-07  1.2664e-07  0:00:04  107
  1894  8.2974e-07  1.4008e-06  1.3494e-06  1.0588e-04  6.0585e-07  2.9314e-07  1.2596e-07  0:00:03  106
  1895  8.2580e-07  1.3944e-06  1.3431e-06  1.0532e-04  6.0292e-07  2.9140e-07  1.2528e-07  0:00:02  105
  1896  8.2187e-07  1.3880e-06  1.3368e-06  1.0477e-04  6.0000e-07  2.8967e-07  1.2461e-07  0:00:02  104
  1897  8.1795e-07  1.3816e-06  1.3306e-06  1.0422e-04  5.9710e-07  2.8795e-07  1.2394e-07  0:00:22  103
  1898  8.1405e-07  1.3753e-06  1.3243e-06  1.0367e-04  5.9420e-07  2.8624e-07  1.2328e-07  0:00:18  102
  1899  8.1016e-07  1.3690e-06  1.3181e-06  1.0312e-04  5.9132e-07  2.8454e-07  1.2262e-07  0:00:14  101
  1900  8.0629e-07  1.3627e-06  1.3119e-06  1.0258e-04  5.8845e-07  2.8285e-07  1.2196e-07  0:00:11  100
  1901  8.0243e-07  1.3564e-06  1.3058e-06  1.0203e-04  5.8559e-07  2.8118e-07  1.2131e-07  0:00:09   99
  1902  7.9859e-07  1.3502e-06  1.2996e-06  1.0149e-04  5.8274e-07  2.7952e-07  1.2066e-07  0:00:07   98
  1903  7.9476e-07  1.3440e-06  1.2935e-06  1.0095e-04  5.7990e-07  2.7787e-07  1.2002e-07  0:00:05   97

  iter  continuity  x-velocity  y-velocity  z-velocity      energy           k       omega     time/iter
  1904  7.9095e-07  1.3378e-06  1.2874e-06  1.0041e-04  5.7708e-07  2.7623e-07  1.1938e-07  0:00:04   96
  1905  7.8714e-07  1.3317e-06  1.2813e-06  9.9867e-05  5.7426e-07  2.7460e-07  1.1874e-07  0:00:03   95
  1906  7.8336e-07  1.3255e-06  1.2752e-06  9.9331e-05  5.7146e-07  2.7299e-07  1.1811e-07  0:00:03   94
  1907  7.7959e-07  1.3194e-06  1.2692e-06  9.8796e-05  5.6866e-07  2.7139e-07  1.1748e-07  0:00:02   93
  1908  7.7583e-07  1.3134e-06  1.2632e-06  9.8263e-05  5.6588e-07  2.6980e-07  1.1686e-07  0:00:02   92
  1909  7.7208e-07  1.3073e-06  1.2572e-06  9.7732e-05  5.6311e-07  2.6822e-07  1.1624e-07  0:00:01   91
  1910  7.6836e-07  1.3013e-06  1.2512e-06  9.7203e-05  5.6035e-07  2.6665e-07  1.1562e-07  0:00:19   90
  1911  7.6464e-07  1.2953e-06  1.2453e-06  9.6676e-05  5.5761e-07  2.6510e-07  1.1501e-07  0:00:15   89
  1912  7.6094e-07  1.2894e-06  1.2393e-06  9.6151e-05  5.5487e-07  2.6355e-07  1.1440e-07  0:00:12   88
  1913  7.5725e-07  1.2834e-06  1.2334e-06  9.5628e-05  5.5214e-07  2.6202e-07  1.1380e-07  0:00:09   87
  1914  7.5358e-07  1.2775e-06  1.2275e-06  9.5108e-05  5.4943e-07  2.6050e-07  1.1320e-07  0:00:07   86

  iter  continuity  x-velocity  y-velocity  z-velocity      energy           k       omega     time/iter
  1915  7.4992e-07  1.2716e-06  1.2217e-06  9.4589e-05  5.4672e-07  2.5899e-07  1.1260e-07  0:00:06   85
  1916  7.4627e-07  1.2658e-06  1.2158e-06  9.4072e-05  5.4403e-07  2.5749e-07  1.1201e-07  0:00:05   84
  1917  7.4264e-07  1.2599e-06  1.2100e-06  9.3558e-05  5.4135e-07  2.5600e-07  1.1142e-07  0:00:04   83
  1918  7.3903e-07  1.2541e-06  1.2042e-06  9.3046e-05  5.3868e-07  2.5452e-07  1.1083e-07  0:00:03   82
  1919  7.3542e-07  1.2484e-06  1.1984e-06  9.2537e-05  5.3602e-07  2.5306e-07  1.1025e-07  0:00:02   81
  1920  7.3184e-07  1.2426e-06  1.1927e-06  9.2029e-05  5.3337e-07  2.5160e-07  1.0967e-07  0:00:02   80
  1921  7.2826e-07  1.2369e-06  1.1869e-06  9.1524e-05  5.3074e-07  2.5016e-07  1.0910e-07  0:00:01   79
  1922  7.2470e-07  1.2312e-06  1.1812e-06  9.1022e-05  5.2811e-07  2.4873e-07  1.0853e-07  0:00:17   78
  1923  7.2116e-07  1.2255e-06  1.1755e-06  9.0521e-05  5.2550e-07  2.4731e-07  1.0797e-07  0:00:13   77
  1924  7.1763e-07  1.2199e-06  1.1698e-06  9.0024e-05  5.2289e-07  2.4590e-07  1.0740e-07  0:00:10   76
  1925  7.1411e-07  1.2142e-06  1.1642e-06  8.9528e-05  5.2030e-07  2.4450e-07  1.0684e-07  0:00:08   75

  iter  continuity  x-velocity  y-velocity  z-velocity      energy           k       omega     time/iter
  1926  7.1061e-07  1.2086e-06  1.1585e-06  8.9036e-05  5.1772e-07  2.4311e-07  1.0629e-07  0:00:07   74
  1927  7.0712e-07  1.2031e-06  1.1529e-06  8.8545e-05  5.1515e-07  2.4173e-07  1.0574e-07  0:00:05   73
  1928  7.0365e-07  1.1975e-06  1.1473e-06  8.8057e-05  5.1259e-07  2.4036e-07  1.0519e-07  0:00:04   72
  1929  7.0019e-07  1.1920e-06  1.1418e-06  8.7572e-05  5.1005e-07  2.3900e-07  1.0465e-07  0:00:03   71
  1930  6.9675e-07  1.1865e-06  1.1362e-06  8.7089e-05  5.0751e-07  2.3765e-07  1.0411e-07  0:00:03   70
  1931  6.9332e-07  1.1810e-06  1.1307e-06  8.6608e-05  5.0499e-07  2.3631e-07  1.0357e-07  0:00:02   69
  1932  6.8990e-07  1.1756e-06  1.1252e-06  8.6131e-05  5.0248e-07  2.3498e-07  1.0304e-07  0:00:02   68
  1933  6.8650e-07  1.1702e-06  1.1197e-06  8.5655e-05  4.9998e-07  2.3367e-07  1.0251e-07  0:00:15   67
  1934  6.8312e-07  1.1648e-06  1.1142e-06  8.5182e-05  4.9749e-07  2.3236e-07  1.0198e-07  0:00:12   66
  1935  6.7975e-07  1.1594e-06  1.1088e-06  8.4712e-05  4.9501e-07  2.3107e-07  1.0146e-07  0:00:09   65
  1936  6.7639e-07  1.1540e-06  1.1034e-06  8.4244e-05  4.9255e-07  2.2978e-07  1.0094e-07  0:00:07   64

  iter  continuity  x-velocity  y-velocity  z-velocity      energy           k       omega     time/iter
  1937  6.7305e-07  1.1487e-06  1.0980e-06  8.3778e-05  4.9010e-07  2.2851e-07  1.0043e-07  0:00:06   63
  1938  6.6973e-07  1.1434e-06  1.0926e-06  8.3316e-05  4.8766e-07  2.2724e-07  9.9918e-08  0:00:04   62
  1939  6.6642e-07  1.1381e-06  1.0872e-06  8.2855e-05  4.8523e-07  2.2599e-07  9.9410e-08  0:00:03   61
  1940  6.6312e-07  1.1329e-06  1.0819e-06  8.2397e-05  4.8281e-07  2.2475e-07  9.8906e-08  0:00:03   60
  1941  6.5984e-07  1.1276e-06  1.0766e-06  8.1941e-05  4.8040e-07  2.2351e-07  9.8406e-08  0:00:02   59
  1942  6.5657e-07  1.1224e-06  1.0713e-06  8.1488e-05  4.7801e-07  2.2229e-07  9.7909e-08  0:00:02   58
  1943  6.5332e-07  1.1173e-06  1.0660e-06  8.1038e-05  4.7563e-07  2.2108e-07  9.7417e-08  0:00:01   57
  1944  6.5009e-07  1.1121e-06  1.0608e-06  8.0589e-05  4.7326e-07  2.1988e-07  9.6928e-08  0:00:01   56
  1945  6.4687e-07  1.1070e-06  1.0555e-06  8.0143e-05  4.7090e-07  2.1869e-07  9.6442e-08  0:00:01   55
  1946  6.4366e-07  1.1019e-06  1.0503e-06  7.9700e-05  4.6855e-07  2.1750e-07  9.5960e-08  0:00:11   54
  1947  6.4047e-07  1.0968e-06  1.0451e-06  7.9259e-05  4.6621e-07  2.1633e-07  9.5480e-08  0:00:09   53

  iter  continuity  x-velocity  y-velocity  z-velocity      energy           k       omega     time/iter
  1948  6.3729e-07  1.0917e-06  1.0400e-06  7.8820e-05  4.6389e-07  2.1517e-07  9.5004e-08  0:00:07   52
  1949  6.3413e-07  1.0867e-06  1.0348e-06  7.8384e-05  4.6158e-07  2.1402e-07  9.4532e-08  0:00:06   51
  1950  6.3099e-07  1.0817e-06  1.0297e-06  7.7950e-05  4.5928e-07  2.1287e-07  9.4064e-08  0:00:04   50
  1951  6.2785e-07  1.0767e-06  1.0246e-06  7.7518e-05  4.5699e-07  2.1174e-07  9.3599e-08  0:00:03   49
  1952  6.2474e-07  1.0717e-06  1.0196e-06  7.7088e-05  4.5471e-07  2.1062e-07  9.3137e-08  0:00:03   48
  1953  6.2164e-07  1.0667e-06  1.0145e-06  7.6661e-05  4.5245e-07  2.0951e-07  9.2679e-08  0:00:02   47
  1954  6.1855e-07  1.0618e-06  1.0095e-06  7.6236e-05  4.5020e-07  2.0840e-07  9.2225e-08  0:00:02   46
  1955  6.1548e-07  1.0569e-06  1.0045e-06  7.5814e-05  4.4795e-07  2.0731e-07  9.1774e-08  0:00:01   45
  1956  6.1243e-07  1.0520e-06  9.9948e-07  7.5393e-05  4.4572e-07  2.0623e-07  9.1326e-08  0:00:01   44
  1957  6.0938e-07  1.0472e-06  9.9452e-07  7.4975e-05  4.4351e-07  2.0515e-07  9.0881e-08  0:00:01   43
  1958  6.0636e-07  1.0424e-06  9.8958e-07  7.4559e-05  4.4130e-07  2.0409e-07  9.0440e-08  0:00:09   42

  iter  continuity  x-velocity  y-velocity  z-velocity      energy           k       omega     time/iter
  1959  6.0335e-07  1.0375e-06  9.8466e-07  7.4145e-05  4.3910e-07  2.0303e-07  9.0004e-08  0:00:07   41
  1960  6.0035e-07  1.0328e-06  9.7977e-07  7.3734e-05  4.3692e-07  2.0198e-07  8.9570e-08  0:00:05   40
  1961  5.9737e-07  1.0280e-06  9.7489e-07  7.3324e-05  4.3475e-07  2.0094e-07  8.9140e-08  0:00:04   39
  1962  5.9440e-07  1.0232e-06  9.7004e-07  7.2917e-05  4.3258e-07  1.9991e-07  8.8712e-08  0:00:03   38
  1963  5.9145e-07  1.0185e-06  9.6522e-07  7.2512e-05  4.3043e-07  1.9889e-07  8.8288e-08  0:00:03   37
  1964  5.8851e-07  1.0138e-06  9.6041e-07  7.2109e-05  4.2829e-07  1.9788e-07  8.7867e-08  0:00:02   36
  1965  5.8558e-07  1.0092e-06  9.5563e-07  7.1709e-05  4.2616e-07  1.9688e-07  8.7449e-08  0:00:02   35
  1966  5.8268e-07  1.0045e-06  9.5086e-07  7.1310e-05  4.2405e-07  1.9588e-07  8.7034e-08  0:00:01   34
  1967  5.7978e-07  9.9987e-07  9.4613e-07  7.0914e-05  4.2194e-07  1.9490e-07  8.6622e-08  0:00:01   33
  1968  5.7690e-07  9.9526e-07  9.4141e-07  7.0520e-05  4.1985e-07  1.9392e-07  8.6213e-08  0:00:01   32
  1969  5.7403e-07  9.9067e-07  9.3672e-07  7.0128e-05  4.1776e-07  1.9295e-07  8.5807e-08  0:00:01   31

  iter  continuity  x-velocity  y-velocity  z-velocity      energy           k       omega     time/iter
  1970  5.7118e-07  9.8610e-07  9.3204e-07  6.9738e-05  4.1569e-07  1.9199e-07  8.5403e-08  0:00:00   30
  1971  5.6835e-07  9.8156e-07  9.2739e-07  6.9350e-05  4.1363e-07  1.9104e-07  8.5003e-08  0:00:06   29
  1972  5.6552e-07  9.7704e-07  9.2277e-07  6.8965e-05  4.1158e-07  1.9010e-07  8.4606e-08  0:00:05   28
  1973  5.6272e-07  9.7254e-07  9.1816e-07  6.8582e-05  4.0954e-07  1.8917e-07  8.4211e-08  0:00:04   27
  1974  5.5992e-07  9.6806e-07  9.1358e-07  6.8201e-05  4.0751e-07  1.8824e-07  8.3820e-08  0:00:03   26
  1975  5.5714e-07  9.6360e-07  9.0902e-07  6.7822e-05  4.0549e-07  1.8733e-07  8.3431e-08  0:00:02   25
  1976  5.5438e-07  9.5916e-07  9.0448e-07  6.7446e-05  4.0348e-07  1.8642e-07  8.3045e-08  0:00:02   24
  1977  5.5163e-07  9.5475e-07  8.9996e-07  6.7072e-05  4.0149e-07  1.8552e-07  8.2662e-08  0:00:01   23
  1978  5.4889e-07  9.5035e-07  8.9547e-07  6.6700e-05  3.9950e-07  1.8463e-07  8.2282e-08  0:00:01   22
  1979  5.4617e-07  9.4598e-07  8.9100e-07  6.6330e-05  3.9752e-07  1.8375e-07  8.1906e-08  0:00:01   21
  1980  5.4346e-07  9.4163e-07  8.8655e-07  6.5963e-05  3.9556e-07  1.8287e-07  8.1532e-08  0:00:05   20

  iter  continuity  x-velocity  y-velocity  z-velocity      energy           k       omega     time/iter
  1981  5.4077e-07  9.3730e-07  8.8212e-07  6.5597e-05  3.9361e-07  1.8200e-07  8.1161e-08  0:00:03   19
  1982  5.3809e-07  9.3299e-07  8.7771e-07  6.5235e-05  3.9166e-07  1.8114e-07  8.0793e-08  0:00:03   18
  1983  5.3542e-07  9.2870e-07  8.7333e-07  6.4874e-05  3.8973e-07  1.8029e-07  8.0427e-08  0:00:02   17
  1984  5.3277e-07  9.2443e-07  8.6897e-07  6.4516e-05  3.8781e-07  1.7944e-07  8.0064e-08  0:00:01   16
  1985  5.3013e-07  9.2018e-07  8.6463e-07  6.4160e-05  3.8590e-07  1.7860e-07  7.9703e-08  0:00:01   15
  1986  5.2751e-07  9.1595e-07  8.6031e-07  6.3806e-05  3.8400e-07  1.7777e-07  7.9345e-08  0:00:01   14
  1987  5.2490e-07  9.1175e-07  8.5601e-07  6.3455e-05  3.8211e-07  1.7694e-07  7.8989e-08  0:00:01   13
  1988  5.2230e-07  9.0756e-07  8.5174e-07  6.3106e-05  3.8023e-07  1.7613e-07  7.8636e-08  0:00:00   12
  1989  5.1972e-07  9.0339e-07  8.4749e-07  6.2759e-05  3.7836e-07  1.7531e-07  7.8285e-08  0:00:00   11
  1990  5.1715e-07  8.9925e-07  8.4326e-07  6.2415e-05  3.7650e-07  1.7451e-07  7.7936e-08  0:00:00   10
  1991  5.1460e-07  8.9512e-07  8.3905e-07  6.2073e-05  3.7465e-07  1.7371e-07  7.7590e-08  0:00:00    9

  iter  continuity  x-velocity  y-velocity  z-velocity      energy           k       omega     time/iter
  1992  5.1206e-07  8.9102e-07  8.3486e-07  6.1734e-05  3.7281e-07  1.7292e-07  7.7246e-08  0:00:02    8
  1993  5.0953e-07  8.8693e-07  8.3070e-07  6.1397e-05  3.7099e-07  1.7214e-07  7.6905e-08  0:00:01    7
  1994  5.0702e-07  8.8286e-07  8.2655e-07  6.1062e-05  3.6917e-07  1.7136e-07  7.6566e-08  0:00:01    6
  1995  5.0452e-07  8.7882e-07  8.2243e-07  6.0729e-05  3.6736e-07  1.7059e-07  7.6229e-08  0:00:01    5
  1996  5.0203e-07  8.7479e-07  8.1833e-07  6.0399e-05  3.6556e-07  1.6983e-07  7.5894e-08  0:00:00    4
  1997  4.9956e-07  8.7078e-07  8.1425e-07  6.0071e-05  3.6378e-07  1.6908e-07  7.5562e-08  0:00:00    3
  1998  4.9710e-07  8.6679e-07  8.1020e-07  5.9746e-05  3.6200e-07  1.6833e-07  7.5231e-08  0:00:00    2
  1999  4.9466e-07  8.6283e-07  8.0616e-07  5.9423e-05  3.6023e-07  1.6758e-07  7.4903e-08  0:00:00    1
  2000  4.9222e-07  8.5888e-07  8.0215e-07  5.9103e-05  3.5847e-07  1.6684e-07  7.4577e-08  0:00:00    0

> 
adjoint/                parallel/               server/
define/                 parametric-study/       solve/
display/                plot/                   surface/
exit                    preferences/            turbo-workflow/
file/                   print-license-usage     views/
mesh/                   report/

> /file/write-case-data project1
Fast-loading "C:\PROGRA~1\ANSYSI~1\v231\fluent\fluent23.1.0\\addons\afd\lib\hdfio.bin"
Done.

Writing to Engs-30669:"C:\Users\kebl7595\Desktop\CFD\Runs\Viscous\Mach 0.3\12 degrees\project1.cas.h5" in NODE0 mode and compression level 1 ...
       12996 cells,     1 zone  ...
       43722 faces,     8 zones ...
       17864 nodes,     1 zone  ...
  Done.
Done.

Writing to Engs-30669:"C:\Users\kebl7595\Desktop\CFD\Runs\Viscous\Mach 0.3\12 degrees\project1.dat.h5" in NODE0 mode and compression level 1 ...
  Writing results.
Done.

> /file/export/ascii "./surface.dat" wing te () no pressure mach-number quit no

Writing "./surface.dat"...

Writing information to ascii file ...
Done.


> /report/forces/wall-forces y -0.20791 0.97815 0 y "Lift"

> /report/forces/wall-forces y 0.97815 0.20791 0 y "Drag"

> /exit

Posting ANSYS Product Improvement Program performance data 
Done.
Auto-Transcript Stop Time:  14:01:38, 21 May 2024 GMT Daylight Time 
Total Transcript Time: 4 Minute 33 Second.
