Auto-Transcript Start Time:  13:56:21, 21 May 2024 GMT Daylight Time 
Current Directory: "C:\Users\kebl7595\Desktop\CFD\Runs\Viscous\Mach 0.3\3 degrees"

              Welcome to ANSYS Fluent 2023 R1

              Copyright 1987-2023 ANSYS, Inc. All Rights Reserved.
              Unauthorized use, distribution or duplication is prohibited.
              This product is subject to U.S. laws governing export and re-export.
              For full Legal Notice, see documentation.

Build Time: Nov 28 2022 09:52:02 EST  Build Id: 10208  
 
Connected License Server List:	1055@ansyslic.eng.ox.ac.uk

*********************************************
Info: Your license enables 4-way parallel execution.
For faster simulations, please start the application with the appropriate parallel options.
*********************************************


     --------------------------------------------------------------
     This is an academic version of ANSYS FLUENT. Usage of this product
     license is limited to the terms and conditions specified in your ANSYS
     license form, additional terms section.
     --------------------------------------------------------------
Host spawning Node 0 on machine "Engs-30669" (win64).

------------------------------------------------------------------------------------
ID    Hostname    Core  O.S.         PID    Vendor                                 
------------------------------------------------------------------------------------
n0    Engs-30669  1/32  Windows-x64  47828  13th Gen Intel(R) Core(TM) i9-13900    
host  Engs-30669        Windows-x64  41312  13th Gen Intel(R) Core(TM) i9-13900    

MPI Option Selected: intel
------------------------------------------------------------------------------------

Cleanup script file is C:\\Users\\kebl7595\\Desktop\\CFD\\Runs\\Viscous\\Mach 0.3\\3 degrees\\cleanup-fluent-Engs-30669-41312.bat
QA Service Message :
QA Services Agreement Enabled. This application is included in the scope of an ANSYS QA Services Agreement.
Posting ANSYS Product Improvement Program startup data
Done.

Reading journal file C:/Users/kebl7595/Desktop/CFD/Runs/Viscous/Mach 0.3/3 degrees/project1.jou...

> /file/set-batch-options no no no 

> 
define/                 parametric-study/       solve/
display/                plot/                   surface/
exit                    preferences/            switch-to-meshing-mode
file/                   print-license-usage     turbo-workflow/
mesh/                   report/                 views/
parallel/               server/

> /file/import/cgns/mesh  "./project1.cgns"
Engs-30669 has other FLUENT parallel processes running.                       Process affinity not being set.

Importing "./project1.cgns"

Opening library "C:\\PROGRA~1\\ANSYSI~1\\v231\\fluent\\fluent23.1.0\\vki\\win64\\devtools4.4.6.dll"... done.

Read    17864 nodes
   12996 hexahedral cells, zone  1
    9462 quadrilateral wall faces, zone  2.
   33972 quadrilateral interior faces, zone  3.
     282 quadrilateral interface faces, zone  4.
       6 quadrilateral wall faces, zone  5.

Building...
     mesh
     materials,
     interface,
     domains,
     zones,
	default_exterior-1
	interface-default_subface
	default_interior-1
	default_subface
	default
     parallel,
The automatic selection for flux type has changed to Rhie-Chow: momentum based.

Done.


> 
adjoint/                parallel/               server/
define/                 parametric-study/       solve/
display/                plot/                   surface/
exit                    preferences/            turbo-workflow/
file/                   print-license-usage     views/
mesh/                   report/

> /define/models/solver/density-based-implicit yes

> 
adjoint/                parallel/               server/
define/                 parametric-study/       solve/
display/                plot/                   surface/
exit                    preferences/            turbo-workflow/
file/                   print-license-usage     views/
mesh/                   report/

> /define/models/energy? yes yes invalid command [yes]
yes

> /define/models/viscous/kw-standard? yes

> 
adjoint/                parallel/               server/
define/                 parametric-study/       solve/
display/                plot/                   surface/
exit                    preferences/            turbo-workflow/
file/                   print-license-usage     views/
mesh/                   report/

> /define/materials/change-create air air air is a fluid
yes 
Density
ideal-gas no data required.

no no no no no no

> 
adjoint/                parallel/               server/
define/                 parametric-study/       solve/
display/                plot/                   surface/
exit                    preferences/            turbo-workflow/
file/                   print-license-usage     views/
mesh/                   report/

> /mesh/modify-zones/sep-face-zone-angle 2 90 yes

 4332 faces in contiguous region 0
 228 faces in contiguous region 1
 342 faces in contiguous region 2
 4332 faces in contiguous region 3
 228 faces in contiguous region 4
 Separates zone 2 into 5 zone(s).
Updating new zone information...
   created new zone default_subface:010 from default_subface
   created new zone default_subface:009 from default_subface
   created new zone default_subface:008 from default_subface
   created new zone default_subface:007 from default_subface
done.

> 
adjoint/                parallel/               server/
define/                 parametric-study/       solve/
display/                plot/                   surface/
exit                    preferences/            turbo-workflow/
file/                   print-license-usage     views/
mesh/                   report/

> /define/boundary-conditions/zone-name  5   te

> /define/boundary-conditions/zone-name  7 wing

> /define/boundary-conditions/zone-name  2 sym1

> /define/boundary-conditions/zone-name  9 sym2

> 
adjoint/                parallel/               server/
define/                 parametric-study/       solve/
display/                plot/                   surface/
exit                    preferences/            turbo-workflow/
file/                   print-license-usage     views/
mesh/                   report/

> /define/boundary-conditions/zone-name  8 far1

> /define/boundary-conditions/zone-name 10 far2

> 
adjoint/                parallel/               server/
define/                 parametric-study/       solve/
display/                plot/                   surface/
exit                    preferences/            turbo-workflow/
file/                   print-license-usage     views/
mesh/                   report/

> /define/boundary-conditions/zone-type  8 pressure-far-field

> /define/boundary-conditions/zone-type 10 pressure-far-field

> /define/boundary-conditions/zone-type  2 symmetry

> /define/boundary-conditions/zone-type  9 symmetry

> 
adjoint/                parallel/               server/
define/                 parametric-study/       solve/
display/                plot/                   surface/
exit                    preferences/            turbo-workflow/
file/                   print-license-usage     views/
mesh/                   report/

> /define/boundary-conditions/pressure-far-field (far2 far1)
far1 no 0 no 0.3 no 300 yes no 0.99863 no 0.052336 no 0. no yes 5 0.02

> /define/boundary-conditions/pressure-far-field (far2 far1)
far2 no 0 no 0.3 no 300 yes no 0.99863 no 0.052336 no 0. no yes 5 0.02

> 
adjoint/                parallel/               server/
define/                 parametric-study/       solve/
display/                plot/                   surface/
exit                    preferences/            turbo-workflow/
file/                   print-license-usage     views/
mesh/                   report/

> /solve/initialize/compute-defaults/pressure-far-field (far2 far1)
far1

> /solve/initialize/initialize-flow

> 
adjoint/                parallel/               server/
define/                 parametric-study/       solve/
display/                plot/                   surface/
exit                    preferences/            turbo-workflow/
file/                   print-license-usage     views/
mesh/                   report/

> /solve/monitors/residual/convergence-criteria 1.e-9 1.e-9 1.e-9 1.e-9 1.e-9 1.e-9 1.e-9

> /solve/iterate 2000

  iter  continuity  x-velocity  y-velocity  z-velocity      energy           k       omega     time/iter
     1  1.0000e+00  1.0000e+00  1.0000e+00  1.0000e+00  1.0000e+00  1.7434e-01  1.2793e-01  0:00:00 1999
     2  5.0114e-01  3.7887e-01  4.4562e-01  1.0000e+00  5.0654e-01  1.3448e-01  1.0311e-01  0:00:00 1998
     3  2.8201e-01  2.1674e-01  2.3962e-01  8.2225e-01  2.8354e-01  1.0715e-01  8.5504e-02  0:00:00 1997
     4  1.8737e-01  1.8160e-01  1.5879e-01  4.8869e-01  1.8781e-01  8.8146e-02  7.2274e-02  0:00:00 1996
     5  1.4183e-01  1.4472e-01  1.1042e-01  8.1630e-01  1.4236e-01  7.5372e-02  6.2193e-02  0:00:00 1995
     6  1.1895e-01  1.0584e-01  7.8309e-02  1.0411e+00  1.1992e-01  6.5715e-02  5.4758e-02  0:00:00 1994
     7  1.0456e-01  7.8852e-02  5.7526e-02  1.0046e+00  1.0592e-01  5.7914e-02  4.8824e-02  0:33:13 1993
     8  9.2174e-02  6.0335e-02  4.4513e-02  8.8637e-01  9.3720e-02  5.1461e-02  4.3919e-02  0:26:34 1992
     9  8.1188e-02  4.8215e-02  3.6255e-02  7.9370e-01  8.2750e-02  4.6078e-02  3.9767e-02  0:21:14 1991
    10  7.1569e-02  4.0364e-02  3.0650e-02  7.2562e-01  7.3050e-02  4.1571e-02  3.6210e-02  0:16:59 1990
    11  6.3607e-02  3.5343e-02  2.6461e-02  6.9040e-01  6.4968e-02  3.7822e-02  3.3143e-02  0:13:35 1989

  iter  continuity  x-velocity  y-velocity  z-velocity      energy           k       omega     time/iter
    12  5.7302e-02  3.2435e-02  2.3057e-02  6.9178e-01  5.8538e-02  3.4660e-02  3.0495e-02  0:10:51 1988
    13  5.2608e-02  3.1117e-02  2.0161e-02  7.4209e-01  5.3734e-02  3.1938e-02  2.8219e-02  0:08:41 1987
    14  4.9372e-02  3.0710e-02  1.7650e-02  8.5267e-01  5.0407e-02  2.9573e-02  2.6221e-02  0:06:56 1986
    15  4.7441e-02  3.0841e-02  1.5527e-02  1.0294e+00  4.8401e-02  2.7504e-02  2.4444e-02  0:05:33 1985
    16  4.6521e-02  3.1359e-02  1.3822e-02  1.2677e+00  4.7418e-02  2.5687e-02  2.2864e-02  0:04:26 1984
    17  4.6402e-02  3.2260e-02  1.2563e-02  1.5561e+00  4.7246e-02  2.4087e-02  2.1458e-02  0:03:33 1983
    18  4.6858e-02  3.3463e-02  1.1710e-02  1.8775e+00  4.7657e-02  2.2645e-02  2.0191e-02  0:09:27 1982
    19  4.7693e-02  3.4860e-02  1.1206e-02  2.2177e+00  4.8447e-02  2.1344e-02  1.9042e-02  0:07:33 1981
    20  4.8740e-02  3.6281e-02  1.1017e-02  2.5589e+00  4.9449e-02  2.0160e-02  1.7994e-02  0:06:02 1980
    21  4.9849e-02  3.7616e-02  1.1074e-02  2.8823e+00  5.0509e-02  1.9071e-02  1.7036e-02  0:04:50 1979
    22  5.0874e-02  3.8731e-02  1.1362e-02  3.1688e+00  5.1478e-02  1.8064e-02  1.6157e-02  0:03:52 1978

  iter  continuity  x-velocity  y-velocity  z-velocity      energy           k       omega     time/iter
    23  5.1689e-02  3.9480e-02  1.1919e-02  3.4010e+00  5.2229e-02  1.7131e-02  1.5347e-02  0:03:05 1977
    24  5.2181e-02  3.9825e-02  1.2651e-02  3.5664e+00  5.2651e-02  1.6260e-02  1.4598e-02  0:02:28 1976
    25  5.2273e-02  3.9771e-02  1.3404e-02  3.6561e+00  5.2666e-02  1.5448e-02  1.3902e-02  0:01:58 1975
    26  5.1920e-02  3.9332e-02  1.4131e-02  3.6665e+00  5.2233e-02  1.4688e-02  1.3254e-02  0:01:35 1974
    27  5.1095e-02  3.8469e-02  1.4784e-02  3.5943e+00  5.1327e-02  1.3979e-02  1.2648e-02  0:01:16 1973
    28  4.9793e-02  3.7218e-02  1.5311e-02  3.4397e+00  4.9945e-02  1.3321e-02  1.2081e-02  0:01:01 1972
    29  4.8031e-02  3.5644e-02  1.5685e-02  3.2126e+00  4.8109e-02  1.2708e-02  1.1551e-02  0:00:48 1971
    30  4.5833e-02  3.3759e-02  1.5904e-02  2.9157e+00  4.5844e-02  1.2134e-02  1.1056e-02  0:00:39 1970
    31  4.3240e-02  3.1640e-02  1.5979e-02  2.5851e+00  4.3193e-02  1.1596e-02  1.0590e-02  0:00:31 1969
    32  4.0301e-02  2.9378e-02  1.5912e-02  2.2574e+00  4.0205e-02  1.1090e-02  1.0149e-02  0:00:25 1968
    33  3.7056e-02  2.7030e-02  1.5736e-02  2.0012e+00  3.6924e-02  1.0618e-02  9.7285e-03  0:06:53 1967

  iter  continuity  x-velocity  y-velocity  z-velocity      energy           k       omega     time/iter
    34  3.3556e-02  2.4613e-02  1.5500e-02  1.8905e+00  3.3398e-02  1.0184e-02  9.3313e-03  0:05:30 1966
    35  2.9838e-02  2.2147e-02  1.5207e-02  1.9776e+00  2.9665e-02  9.7874e-03  8.9502e-03  0:04:24 1965
    36  2.5986e-02  2.0029e-02  1.4866e-02  2.2444e+00  2.5807e-02  9.4115e-03  8.5862e-03  0:03:31 1964
    37  2.2087e-02  1.8390e-02  1.4501e-02  2.6481e+00  2.1911e-02  9.0530e-03  8.2398e-03  0:02:49 1963
    38  1.8226e-02  1.7289e-02  1.4150e-02  3.1318e+00  1.8055e-02  8.7091e-03  7.9115e-03  0:02:15 1962
    39  1.4501e-02  1.6816e-02  1.3832e-02  3.6415e+00  1.4336e-02  8.3827e-03  7.5974e-03  0:01:48 1961
    40  1.1054e-02  1.6966e-02  1.3548e-02  4.1544e+00  1.0887e-02  8.0658e-03  7.2964e-03  0:01:26 1960
    41  8.1460e-03  1.7686e-02  1.3292e-02  4.6431e+00  7.9570e-03  7.7690e-03  7.0099e-03  0:01:09 1959
    42  6.2934e-03  1.8804e-02  1.3079e-02  5.0819e+00  6.0597e-03  7.4952e-03  6.7441e-03  0:00:55 1958
    43  6.1481e-03  2.0151e-02  1.2901e-02  5.4482e+00  5.8854e-03  7.2412e-03  6.4876e-03  0:00:44 1957
    44  7.5013e-03  2.1589e-02  1.2751e-02  5.7192e+00  7.2448e-03  6.9934e-03  6.2327e-03  0:00:35 1956

  iter  continuity  x-velocity  y-velocity  z-velocity      energy           k       omega     time/iter
    45  9.4944e-03  2.3001e-02  1.2626e-02  5.8888e+00  9.2464e-03  6.7504e-03  5.9887e-03  0:00:28 1955
    46  1.1608e-02  2.4326e-02  1.2501e-02  5.9441e+00  1.1363e-02  6.5229e-03  5.7518e-03  0:00:23 1954
    47  1.3626e-02  2.5502e-02  1.2366e-02  5.8555e+00  1.3380e-02  6.2976e-03  5.5202e-03  0:00:18 1953
    48  1.5460e-02  2.6498e-02  1.2212e-02  5.6541e+00  1.5212e-02  6.0781e-03  5.2948e-03  0:06:45 1952
    49  1.7073e-02  2.7277e-02  1.2040e-02  5.3287e+00  1.6826e-02  5.8673e-03  5.0738e-03  0:05:24 1951
    50  1.8453e-02  2.7843e-02  1.1843e-02  4.9980e+00  1.8209e-02  5.6625e-03  4.8569e-03  0:04:19 1950
    51  1.9595e-02  2.8197e-02  1.1612e-02  4.5533e+00  1.9357e-02  5.4617e-03  4.6472e-03  0:03:27 1949
    52  2.0501e-02  2.8340e-02  1.1356e-02  4.0015e+00  2.0270e-02  5.2646e-03  4.4454e-03  0:02:45 1948
    53  2.1178e-02  2.8285e-02  1.1077e-02  3.4243e+00  2.0958e-02  5.0586e-03  4.2415e-03  0:02:12 1947
    54  2.1635e-02  2.8039e-02  1.0786e-02  2.8804e+00  2.1426e-02  4.8593e-03  4.0465e-03  0:01:46 1946
    55  2.1885e-02  2.7624e-02  1.0479e-02  2.3968e+00  2.1689e-02  4.6662e-03  3.8617e-03  0:01:25 1945

  iter  continuity  x-velocity  y-velocity  z-velocity      energy           k       omega     time/iter
    56  2.1943e-02  2.7017e-02  1.0173e-02  2.0993e+00  2.1761e-02  4.4860e-03  3.6944e-03  0:01:08 1944
    57  2.1825e-02  2.6244e-02  9.8666e-03  2.0806e+00  2.1658e-02  4.3293e-03  3.5467e-03  0:00:54 1943
    58  2.1548e-02  2.5342e-02  9.5521e-03  2.3548e+00  2.1395e-02  4.2483e-03  3.4388e-03  0:00:43 1942
    59  2.1128e-02  2.4325e-02  9.2355e-03  2.8255e+00  2.0989e-02  4.1891e-03  3.3534e-03  0:00:35 1941
    60  2.0578e-02  2.3222e-02  8.9147e-03  3.3877e+00  2.0452e-02  4.1319e-03  3.2704e-03  0:00:28 1940
    61  1.9913e-02  2.2045e-02  8.5936e-03  3.9679e+00  1.9800e-02  4.0849e-03  3.1909e-03  0:06:50 1939
    62  1.9146e-02  2.0810e-02  8.2731e-03  4.5228e+00  1.9044e-02  4.0420e-03  3.1199e-03  0:05:28 1938
    63  1.8291e-02  1.9537e-02  7.9543e-03  5.0153e+00  1.8199e-02  4.0034e-03  3.0516e-03  0:04:22 1937
    64  1.7356e-02  1.8215e-02  7.6466e-03  5.4322e+00  1.7273e-02  3.9634e-03  2.9884e-03  0:03:30 1936
    65  1.6350e-02  1.6862e-02  7.3334e-03  5.7623e+00  1.6275e-02  3.9247e-03  2.9251e-03  0:02:48 1935
    66  1.5281e-02  1.5511e-02  7.0092e-03  5.9858e+00  1.5212e-02  3.8833e-03  2.8606e-03  0:02:14 1934

  iter  continuity  x-velocity  y-velocity  z-velocity      energy           k       omega     time/iter
    67  1.4158e-02  1.4175e-02  6.6767e-03  6.1043e+00  1.4094e-02  3.8425e-03  2.8045e-03  0:01:47 1933
    68  1.2987e-02  1.2887e-02  6.3266e-03  6.1086e+00  1.2926e-02  3.7988e-03  2.7470e-03  0:01:26 1932
    69  1.1777e-02  1.1676e-02  5.9615e-03  6.0145e+00  1.1718e-02  3.7525e-03  2.6869e-03  0:01:08 1931
    70  1.0537e-02  1.0572e-02  5.5846e-03  5.9056e+00  1.0479e-02  3.6970e-03  2.6274e-03  0:00:55 1930
    71  9.2785e-03  9.6077e-03  5.2051e-03  5.6809e+00  9.2200e-03  3.6325e-03  2.5668e-03  0:00:44 1929
    72  8.0102e-03  8.8248e-03  4.8227e-03  5.3192e+00  7.9505e-03  3.5591e-03  2.5043e-03  0:00:35 1928
    73  6.7543e-03  8.2472e-03  4.4468e-03  4.9347e+00  6.6925e-03  3.4787e-03  2.4354e-03  0:00:28 1927
    74  5.5469e-03  7.9076e-03  4.0838e-03  4.4925e+00  5.4824e-03  3.3947e-03  2.3592e-03  0:06:48 1926
    75  4.4523e-03  7.8359e-03  3.7372e-03  4.0179e+00  4.3854e-03  3.3040e-03  2.2999e-03  0:05:26 1925
    76  3.6442e-03  7.9995e-03  3.4179e-03  3.5138e+00  3.5798e-03  3.2073e-03  2.2442e-03  0:04:21 1924
    77  3.4117e-03  8.3478e-03  3.1420e-03  3.0388e+00  3.3631e-03  3.1059e-03  2.1816e-03  0:03:28 1923

  iter  continuity  x-velocity  y-velocity  z-velocity      energy           k       omega     time/iter
    78  3.9209e-03  8.8755e-03  2.9109e-03  2.6560e+00  3.8977e-03  2.9980e-03  2.1120e-03  0:02:47 1922
    79  5.0422e-03  9.5103e-03  2.6995e-03  2.4445e+00  5.0404e-03  2.8916e-03  2.0422e-03  0:02:13 1921
    80  6.5693e-03  1.0182e-02  2.5141e-03  2.4704e+00  6.5815e-03  2.7764e-03  1.9676e-03  0:01:47 1920
    81  8.3234e-03  1.0877e-02  2.3778e-03  2.7346e+00  8.3443e-03  2.6652e-03  1.8934e-03  0:01:25 1919
    82  1.0221e-02  1.1556e-02  2.3115e-03  3.1704e+00  1.0247e-02  2.5548e-03  1.8208e-03  0:01:08 1918
    83  1.2146e-02  1.2185e-02  2.3529e-03  3.7042e+00  1.2175e-02  2.4548e-03  1.7534e-03  0:00:54 1917
    84  1.3990e-02  1.2752e-02  2.4936e-03  4.2706e+00  1.4019e-02  2.3693e-03  1.6958e-03  0:00:44 1916
    85  1.5674e-02  1.3244e-02  2.7001e-03  4.8276e+00  1.5701e-02  2.3308e-03  1.6589e-03  0:00:35 1915
    86  1.7190e-02  1.3657e-02  2.9496e-03  5.3437e+00  1.7214e-02  2.3063e-03  1.6376e-03  0:00:28 1914
    87  1.8515e-02  1.3973e-02  3.2103e-03  5.8055e+00  1.8533e-02  2.2823e-03  1.6209e-03  0:00:22 1913
    88  1.9633e-02  1.4192e-02  3.4627e-03  6.1877e+00  1.9645e-02  2.2626e-03  1.6040e-03  0:00:18 1912

  iter  continuity  x-velocity  y-velocity  z-velocity      energy           k       omega     time/iter
    89  2.0536e-02  1.4307e-02  3.6974e-03  6.4818e+00  2.0541e-02  2.2594e-03  1.5888e-03  0:00:14 1911
    90  2.1220e-02  1.4321e-02  3.9094e-03  6.6875e+00  2.1217e-02  2.2622e-03  1.5706e-03  0:06:33 1910
    91  2.1684e-02  1.4237e-02  4.0948e-03  6.7936e+00  2.1673e-02  2.2717e-03  1.5557e-03  0:05:15 1909
    92  2.1931e-02  1.4057e-02  4.2500e-03  6.7973e+00  2.1911e-02  2.2694e-03  1.5385e-03  0:04:11 1908
    93  2.1962e-02  1.3784e-02  4.3736e-03  6.6913e+00  2.1933e-02  2.2703e-03  1.5224e-03  0:03:21 1907
    94  2.1780e-02  1.3432e-02  4.4591e-03  6.4531e+00  2.1743e-02  2.2720e-03  1.5063e-03  0:02:41 1906
    95  2.1391e-02  1.3008e-02  4.5093e-03  6.1460e+00  2.1345e-02  2.2715e-03  1.4875e-03  0:02:09 1905
    96  2.0803e-02  1.2525e-02  4.5247e-03  5.7996e+00  2.0750e-02  2.2665e-03  1.4686e-03  0:01:43 1904
    97  2.0029e-02  1.1998e-02  4.5044e-03  5.4127e+00  1.9971e-02  2.2618e-03  1.4519e-03  0:01:22 1903
    98  1.9082e-02  1.1441e-02  4.4473e-03  4.9252e+00  1.9019e-02  2.2568e-03  1.4363e-03  0:01:06 1902
    99  1.7975e-02  1.0867e-02  4.3591e-03  4.4315e+00  1.7909e-02  2.2492e-03  1.4263e-03  0:00:53 1901

  iter  continuity  x-velocity  y-velocity  z-velocity      energy           k       omega     time/iter
   100  1.6739e-02  1.0306e-02  4.2453e-03  3.9152e+00  1.6670e-02  2.2387e-03  1.4129e-03  0:00:42 1900
   101  1.5387e-02  9.7755e-03  4.1125e-03  3.3418e+00  1.5317e-02  2.2261e-03  1.4020e-03  0:00:34 1899
   102  1.3934e-02  9.2968e-03  3.9627e-03  2.7799e+00  1.3864e-02  2.2099e-03  1.3830e-03  0:00:27 1898
   103  1.2399e-02  8.8923e-03  3.8011e-03  2.2809e+00  1.2331e-02  2.1916e-03  1.3713e-03  0:00:21 1897
   104  1.0804e-02  8.5888e-03  3.6310e-03  1.9281e+00  1.0739e-02  2.1700e-03  1.3591e-03  0:00:17 1896
   105  9.1759e-03  8.3993e-03  3.4607e-03  1.8144e+00  9.1143e-03  2.1450e-03  1.3518e-03  0:06:33 1895
   106  7.5432e-03  8.3082e-03  3.3040e-03  1.9711e+00  7.4853e-03  2.1165e-03  1.3404e-03  0:05:14 1894
   107  5.9493e-03  8.3191e-03  3.1572e-03  2.3265e+00  5.8952e-03  2.0863e-03  1.3152e-03  0:04:11 1893
   108  4.4747e-03  8.4265e-03  3.0325e-03  2.7825e+00  4.4240e-03  2.0564e-03  1.2915e-03  0:03:21 1892
   109  3.2968e-03  8.6163e-03  2.9332e-03  3.2675e+00  3.2499e-03  2.0245e-03  1.2636e-03  0:02:41 1891
   110  2.7878e-03  8.8647e-03  2.8665e-03  3.7366e+00  2.7497e-03  1.9891e-03  1.2415e-03  0:02:08 1890

  iter  continuity  x-velocity  y-velocity  z-velocity      energy           k       omega     time/iter
   111  3.2168e-03  9.1502e-03  2.8330e-03  4.1640e+00  3.1916e-03  1.9515e-03  1.2183e-03  0:01:43 1889
   112  4.2430e-03  9.4511e-03  2.8310e-03  4.5342e+00  4.2247e-03  1.9135e-03  1.1935e-03  0:01:22 1888
   113  5.4834e-03  9.7451e-03  2.8571e-03  4.8366e+00  5.4667e-03  1.8757e-03  1.1697e-03  0:01:06 1887
   114  6.7562e-03  1.0018e-02  2.9075e-03  5.0748e+00  6.7386e-03  1.8359e-03  1.1454e-03  0:00:52 1886
   115  7.9710e-03  1.0256e-02  2.9744e-03  5.2421e+00  7.9517e-03  1.7952e-03  1.1206e-03  0:00:42 1885
   116  9.0897e-03  1.0454e-02  3.0500e-03  5.3292e+00  9.0685e-03  1.7571e-03  1.0966e-03  0:00:34 1884
   117  1.0102e-02  1.0599e-02  3.1300e-03  5.3387e+00  1.0079e-02  1.7234e-03  1.0764e-03  0:00:27 1883
   118  1.0994e-02  1.0683e-02  3.2098e-03  5.2532e+00  1.0971e-02  1.7076e-03  1.0638e-03  0:00:21 1882
   119  1.1760e-02  1.0706e-02  3.2845e-03  5.0811e+00  1.1735e-02  1.6973e-03  1.0595e-03  0:06:33 1881
   120  1.2392e-02  1.0667e-02  3.3505e-03  4.8884e+00  1.2368e-02  1.6863e-03  1.0540e-03  0:05:15 1880
   121  1.2888e-02  1.0565e-02  3.4042e-03  4.7201e+00  1.2864e-02  1.6751e-03  1.0497e-03  0:04:11 1879

  iter  continuity  x-velocity  y-velocity  z-velocity      energy           k       omega     time/iter
   122  1.3246e-02  1.0403e-02  3.4422e-03  4.5483e+00  1.3224e-02  1.6694e-03  1.0470e-03  0:03:21 1878
   123  1.3467e-02  1.0177e-02  3.4668e-03  4.3407e+00  1.3446e-02  1.6669e-03  1.0416e-03  0:02:41 1877
   124  1.3552e-02  9.8896e-03  3.4754e-03  4.0804e+00  1.3533e-02  1.6648e-03  1.0355e-03  0:02:09 1876
   125  1.3505e-02  9.5477e-03  3.4665e-03  3.7808e+00  1.3487e-02  1.6617e-03  1.0283e-03  0:01:43 1875
   126  1.3328e-02  9.1560e-03  3.4401e-03  3.4518e+00  1.3313e-02  1.6572e-03  1.0200e-03  0:01:22 1874
   127  1.3029e-02  8.7190e-03  3.3962e-03  3.0942e+00  1.3015e-02  1.6514e-03  1.0101e-03  0:01:06 1873
   128  1.2613e-02  8.2446e-03  3.3354e-03  2.7236e+00  1.2601e-02  1.6448e-03  1.0015e-03  0:00:53 1872
   129  1.2088e-02  7.7513e-03  3.2520e-03  2.3471e+00  1.2078e-02  1.6381e-03  9.9526e-04  0:00:42 1871
   130  1.1462e-02  7.2336e-03  3.1543e-03  1.9738e+00  1.1453e-02  1.6305e-03  9.8464e-04  0:00:34 1870
   131  1.0744e-02  6.6951e-03  3.0438e-03  1.6248e+00  1.0736e-02  1.6230e-03  9.7655e-04  0:00:27 1869
   132  9.9439e-03  6.1564e-03  2.9199e-03  1.3085e+00  9.9372e-03  1.6144e-03  9.7226e-04  0:00:21 1868

  iter  continuity  x-velocity  y-velocity  z-velocity      energy           k       omega     time/iter
   133  9.0733e-03  5.6293e-03  2.7849e-03  1.0556e+00  9.0671e-03  1.6031e-03  9.6351e-04  0:00:17 1867
   134  8.1433e-03  5.1283e-03  2.6400e-03  9.1551e-01  8.1373e-03  1.5898e-03  9.5949e-04  0:06:27 1866
   135  7.1665e-03  4.6695e-03  2.4872e-03  9.1839e-01  7.1604e-03  1.5763e-03  9.5134e-04  0:05:09 1865
   136  6.1573e-03  4.2694e-03  2.3295e-03  1.0398e+00  6.1504e-03  1.5596e-03  9.4352e-04  0:04:07 1864
   137  5.1335e-03  3.9505e-03  2.1668e-03  1.2258e+00  5.1253e-03  1.5417e-03  9.3277e-04  0:03:18 1863
   138  4.1188e-03  3.7224e-03  2.0037e-03  1.4391e+00  4.1084e-03  1.5215e-03  9.2284e-04  0:02:38 1862
   139  3.1464e-03  3.5937e-03  1.8436e-03  1.6570e+00  3.1325e-03  1.4992e-03  9.0916e-04  0:02:06 1861
   140  2.2855e-03  3.5572e-03  1.6920e-03  1.8630e+00  2.2659e-03  1.4754e-03  8.9148e-04  0:01:41 1860
   141  1.7144e-03  3.6105e-03  1.5499e-03  2.0495e+00  1.6876e-03  1.4518e-03  8.7467e-04  0:01:21 1859
   142  1.7128e-03  3.7327e-03  1.4206e-03  2.2154e+00  1.6856e-03  1.4280e-03  8.5491e-04  0:01:05 1858
   143  2.2366e-03  3.9021e-03  1.3111e-03  2.3549e+00  2.2157e-03  1.4033e-03  8.3655e-04  0:00:52 1857

  iter  continuity  x-velocity  y-velocity  z-velocity      energy           k       omega     time/iter
   144  2.9777e-03  4.1036e-03  1.2292e-03  2.4694e+00  2.9617e-03  1.3767e-03  8.1870e-04  0:00:41 1856
   145  3.7654e-03  4.3122e-03  1.1745e-03  2.5633e+00  3.7523e-03  1.3490e-03  8.0044e-04  0:00:33 1855
   146  4.5312e-03  4.5110e-03  1.1495e-03  2.6365e+00  4.5198e-03  1.3214e-03  7.8141e-04  0:00:26 1854
   147  5.2479e-03  4.6901e-03  1.1535e-03  2.6917e+00  5.2374e-03  1.2938e-03  7.6235e-04  0:00:21 1853
   148  5.9000e-03  4.8453e-03  1.1828e-03  2.7280e+00  5.8898e-03  1.2666e-03  7.4398e-04  0:00:17 1852
   149  6.4788e-03  4.9726e-03  1.2309e-03  2.7483e+00  6.4686e-03  1.2390e-03  7.2596e-04  0:00:14 1851
   150  6.9786e-03  5.0678e-03  1.2911e-03  2.7476e+00  6.9681e-03  1.2111e-03  7.0684e-04  0:06:21 1850
   151  7.3950e-03  5.1289e-03  1.3577e-03  2.7251e+00  7.3840e-03  1.1853e-03  6.8983e-04  0:05:04 1849
   152  7.7253e-03  5.1552e-03  1.4262e-03  2.6842e+00  7.7137e-03  1.1655e-03  6.7811e-04  0:04:03 1848
   153  7.9677e-03  5.1463e-03  1.4922e-03  2.6285e+00  7.9553e-03  1.1507e-03  6.6848e-04  0:03:15 1847
   154  8.1219e-03  5.1040e-03  1.5530e-03  2.5542e+00  8.1089e-03  1.1369e-03  6.5914e-04  0:02:36 1846

  iter  continuity  x-velocity  y-velocity  z-velocity      energy           k       omega     time/iter
   155  8.1899e-03  5.0302e-03  1.6062e-03  2.4605e+00  8.1763e-03  1.1245e-03  6.5497e-04  0:02:04 1845
   156  8.1740e-03  4.9272e-03  1.6499e-03  2.3513e+00  8.1598e-03  1.1120e-03  6.5359e-04  0:01:40 1844
   157  8.0775e-03  4.7981e-03  1.6825e-03  2.2383e+00  8.0628e-03  1.0992e-03  6.4757e-04  0:01:20 1843
   158  7.9043e-03  4.6470e-03  1.7036e-03  2.1178e+00  7.8894e-03  1.0862e-03  6.4399e-04  0:01:04 1842
   159  7.6587e-03  4.4735e-03  1.7136e-03  1.9872e+00  7.6437e-03  1.0723e-03  6.3925e-04  0:00:51 1841
   160  7.3463e-03  4.2895e-03  1.7108e-03  1.8518e+00  7.3314e-03  1.0591e-03  6.2989e-04  0:00:41 1840
   161  6.9730e-03  4.0987e-03  1.6962e-03  1.7102e+00  6.9583e-03  1.0470e-03  6.2164e-04  0:00:33 1839
   162  6.5450e-03  3.9072e-03  1.6700e-03  1.5627e+00  6.5308e-03  1.0348e-03  6.1271e-04  0:00:26 1838
   163  6.0690e-03  3.7207e-03  1.6329e-03  1.4071e+00  6.0554e-03  1.0225e-03  6.0071e-04  0:00:21 1837
   164  5.5519e-03  3.5457e-03  1.5858e-03  1.2512e+00  5.5392e-03  1.0099e-03  5.9210e-04  0:06:24 1836
   165  5.0004e-03  3.3887e-03  1.5294e-03  1.0928e+00  4.9887e-03  9.9714e-04  5.8581e-04  0:05:07 1835

  iter  continuity  x-velocity  y-velocity  z-velocity      energy           k       omega     time/iter
   166  4.4231e-03  3.2564e-03  1.4650e-03  9.4204e-01  4.4123e-03  9.8400e-04  5.7853e-04  0:04:05 1834
   167  3.8287e-03  3.1549e-03  1.3938e-03  8.0632e-01  3.8190e-03  9.7062e-04  5.7576e-04  0:03:16 1833
   168  3.2284e-03  3.0881e-03  1.3171e-03  6.9025e-01  3.2196e-03  9.5747e-04  5.7393e-04  0:02:37 1832
   169  2.6347e-03  3.0569e-03  1.2371e-03  6.0479e-01  2.6266e-03  9.4465e-04  5.7018e-04  0:02:05 1831
   170  2.0661e-03  3.0598e-03  1.1559e-03  5.6782e-01  2.0583e-03  9.3246e-04  5.6125e-04  0:01:40 1830
   171  1.5564e-03  3.0935e-03  1.0756e-03  5.8345e-01  1.5480e-03  9.2011e-04  5.6132e-04  0:01:20 1829
   172  1.1784e-03  3.1531e-03  9.9866e-04  6.4439e-01  1.1682e-03  9.0675e-04  5.5815e-04  0:01:04 1828
   173  1.0601e-03  3.2317e-03  9.2761e-04  7.3374e-01  1.0479e-03  8.9210e-04  5.4998e-04  0:00:51 1827
   174  1.2501e-03  3.3224e-03  8.6580e-04  8.3847e-01  1.2377e-03  8.7607e-04  5.4554e-04  0:00:41 1826
   175  1.6168e-03  3.4185e-03  8.1613e-04  9.4725e-01  1.6048e-03  8.5953e-04  5.3739e-04  0:00:33 1825
   176  2.0431e-03  3.5137e-03  7.8143e-04  1.0551e+00  2.0313e-03  8.4248e-04  5.2845e-04  0:00:26 1824

  iter  continuity  x-velocity  y-velocity  z-velocity      energy           k       omega     time/iter
   177  2.4739e-03  3.6020e-03  7.6298e-04  1.1565e+00  2.4621e-03  8.2459e-04  5.1903e-04  0:00:21 1823
   178  2.8853e-03  3.6805e-03  7.6102e-04  1.2493e+00  2.8734e-03  8.0640e-04  5.0857e-04  0:06:21 1822
   179  3.2653e-03  3.7454e-03  7.7372e-04  1.3291e+00  3.2532e-03  7.8737e-04  4.9928e-04  0:05:05 1821
   180  3.6076e-03  3.7940e-03  7.9808e-04  1.3979e+00  3.5953e-03  7.6821e-04  4.9127e-04  0:04:04 1820
   181  3.9069e-03  3.8240e-03  8.3041e-04  1.4533e+00  3.8947e-03  7.4937e-04  4.8246e-04  0:03:15 1819
   182  4.1602e-03  3.8335e-03  8.6724e-04  1.4997e+00  4.1481e-03  7.3251e-04  4.7486e-04  0:02:36 1818
   183  4.3661e-03  3.8222e-03  9.0559e-04  1.5355e+00  4.3541e-03  7.1747e-04  4.6885e-04  0:02:05 1817
   184  4.5240e-03  3.7900e-03  9.4294e-04  1.5574e+00  4.5124e-03  7.0471e-04  4.6213e-04  0:01:40 1816
   185  4.6341e-03  3.7374e-03  9.7793e-04  1.5731e+00  4.6229e-03  6.9340e-04  4.5683e-04  0:01:20 1815
   186  4.6970e-03  3.6635e-03  1.0100e-03  1.5724e+00  4.6863e-03  6.8280e-04  4.5090e-04  0:01:04 1814
   187  4.7135e-03  3.5660e-03  1.0369e-03  1.5605e+00  4.7034e-03  6.7270e-04  4.4669e-04  0:00:51 1813

  iter  continuity  x-velocity  y-velocity  z-velocity      energy           k       omega     time/iter
   188  4.6852e-03  3.4501e-03  1.0589e-03  1.5322e+00  4.6758e-03  6.6348e-04  4.4404e-04  0:00:41 1812
   189  4.6141e-03  3.3193e-03  1.0752e-03  1.4934e+00  4.6053e-03  6.5434e-04  4.3810e-04  0:00:33 1811
   190  4.5023e-03  3.1751e-03  1.0842e-03  1.4451e+00  4.4942e-03  6.4571e-04  4.3238e-04  0:00:26 1810
   191  4.3524e-03  3.0181e-03  1.0870e-03  1.3870e+00  4.3451e-03  6.3760e-04  4.2826e-04  0:06:23 1809
   192  4.1673e-03  2.8525e-03  1.0824e-03  1.3173e+00  4.1608e-03  6.2970e-04  4.2448e-04  0:05:06 1808
   193  3.9501e-03  2.6783e-03  1.0729e-03  1.2378e+00  3.9443e-03  6.2224e-04  4.2077e-04  0:04:05 1807
   194  3.7045e-03  2.5059e-03  1.0521e-03  1.1482e+00  3.6994e-03  6.1523e-04  4.1703e-04  0:03:16 1806
   195  3.4339e-03  2.3340e-03  1.0245e-03  1.0512e+00  3.4295e-03  6.0871e-04  4.1480e-04  0:02:36 1805
   196  3.1422e-03  2.1647e-03  9.9152e-04  9.5209e-01  3.1385e-03  6.0262e-04  4.1408e-04  0:02:05 1804
   197  2.8334e-03  2.0017e-03  9.5339e-04  8.5124e-01  2.8303e-03  5.9670e-04  4.1481e-04  0:01:40 1803
   198  2.5118e-03  1.8498e-03  9.1044e-04  7.4989e-01  2.5093e-03  5.9040e-04  4.1519e-04  0:01:20 1802

  iter  continuity  x-velocity  y-velocity  z-velocity      energy           k       omega     time/iter
   199  2.1832e-03  1.7168e-03  8.6403e-04  6.5046e-01  2.1813e-03  5.8403e-04  4.1817e-04  0:01:04 1801
   200  1.8518e-03  1.6083e-03  8.1338e-04  5.5565e-01  1.8504e-03  5.7823e-04  4.1464e-04  0:00:51 1800
   201  1.5246e-03  1.5269e-03  7.5950e-04  4.7090e-01  1.5239e-03  5.7197e-04  4.0996e-04  0:00:41 1799
   202  1.2124e-03  1.4743e-03  7.0382e-04  4.0422e-01  1.2123e-03  5.6473e-04  4.0695e-04  0:00:33 1798
   203  9.3453e-04  1.4504e-03  6.4777e-04  3.6341e-01  9.3522e-04  5.5657e-04  4.0585e-04  0:00:26 1797
   204  7.2724e-04  1.4539e-03  5.9304e-04  3.5655e-01  7.2882e-04  5.4828e-04  4.0225e-04  0:00:21 1796
   205  6.5131e-04  1.4810e-03  5.4075e-04  3.8253e-01  6.5349e-04  5.3992e-04  3.9672e-04  0:00:17 1795
   206  7.3541e-04  1.5262e-03  4.9280e-04  4.3141e-01  7.3747e-04  5.3122e-04  3.9214e-04  0:06:12 1794
   207  9.2383e-04  1.5835e-03  4.5157e-04  4.9275e-01  9.2538e-04  5.2220e-04  3.8714e-04  0:04:58 1793
   208  1.1536e-03  1.6458e-03  4.1923e-04  5.5875e-01  1.1547e-03  5.1374e-04  3.8123e-04  0:03:58 1792
   209  1.3922e-03  1.7099e-03  3.9836e-04  6.2460e-01  1.3928e-03  5.0533e-04  3.7449e-04  0:03:10 1791

  iter  continuity  x-velocity  y-velocity  z-velocity      energy           k       omega     time/iter
   210  1.6241e-03  1.7720e-03  3.9035e-04  6.8638e-01  1.6244e-03  4.9693e-04  3.6568e-04  0:02:32 1790
   211  1.8418e-03  1.8287e-03  3.9472e-04  7.4280e-01  1.8417e-03  4.8908e-04  3.5665e-04  0:02:02 1789
   212  2.0407e-03  1.8777e-03  4.1083e-04  7.9178e-01  2.0403e-03  4.8216e-04  3.4797e-04  0:01:37 1788
   213  2.2181e-03  1.9178e-03  4.3543e-04  8.3348e-01  2.2175e-03  4.7674e-04  3.3983e-04  0:01:18 1787
   214  2.3724e-03  1.9483e-03  4.6527e-04  8.6715e-01  2.3714e-03  4.7257e-04  3.3241e-04  0:01:02 1786
   215  2.5022e-03  1.9681e-03  4.9790e-04  8.9228e-01  2.5010e-03  4.7029e-04  3.2683e-04  0:00:50 1785
   216  2.6069e-03  1.9767e-03  5.3109e-04  9.0838e-01  2.6054e-03  4.6906e-04  3.2402e-04  0:00:40 1784
   217  2.6859e-03  1.9741e-03  5.6309e-04  9.1544e-01  2.6842e-03  4.6843e-04  3.2211e-04  0:00:32 1783
   218  2.7394e-03  1.9604e-03  5.9230e-04  9.1452e-01  2.7375e-03  4.6804e-04  3.2143e-04  0:00:25 1782
   219  2.7677e-03  1.9363e-03  6.1761e-04  9.0533e-01  2.7655e-03  4.6761e-04  3.1875e-04  0:00:20 1781
   220  2.7709e-03  1.9025e-03  6.3834e-04  8.8919e-01  2.7685e-03  4.6699e-04  3.1536e-04  0:06:12 1780

  iter  continuity  x-velocity  y-velocity  z-velocity      energy           k       omega     time/iter
   221  2.7500e-03  1.8602e-03  6.5404e-04  8.6767e-01  2.7474e-03  4.6582e-04  3.1388e-04  0:04:58 1779
   222  2.7059e-03  1.8106e-03  6.6451e-04  8.4020e-01  2.7031e-03  4.6416e-04  3.1259e-04  0:03:58 1778
   223  2.6397e-03  1.7530e-03  6.6108e-04  8.0639e-01  2.6367e-03  4.6193e-04  3.0947e-04  0:03:10 1777
   224  2.5528e-03  1.6910e-03  6.5080e-04  7.6658e-01  2.5496e-03  4.5892e-04  3.0699e-04  0:02:32 1776
   225  2.4466e-03  1.6278e-03  6.4766e-04  7.2130e-01  2.4432e-03  4.5517e-04  3.0491e-04  0:02:02 1775
   226  2.3229e-03  1.5649e-03  6.4091e-04  6.7045e-01  2.3193e-03  4.5130e-04  3.0144e-04  0:01:37 1774
   227  2.1830e-03  1.5040e-03  6.2921e-04  6.1683e-01  2.1792e-03  4.4729e-04  2.9855e-04  0:01:18 1773
   228  2.0289e-03  1.4470e-03  6.1292e-04  5.6019e-01  2.0248e-03  4.4275e-04  2.9675e-04  0:01:02 1772
   229  1.8623e-03  1.3959e-03  5.9245e-04  5.0165e-01  1.8579e-03  4.3817e-04  2.9465e-04  0:06:44 1771
   230  1.6855e-03  1.3528e-03  5.6833e-04  4.4251e-01  1.6808e-03  4.3365e-04  2.9249e-04  0:05:23 1770
   231  1.5010e-03  1.3193e-03  5.4099e-04  3.8442e-01  1.4959e-03  4.2875e-04  2.8979e-04  0:04:18 1769

  iter  continuity  x-velocity  y-velocity  z-velocity      energy           k       omega     time/iter
   232  1.3115e-03  1.2966e-03  5.1099e-04  3.2811e-01  1.3058e-03  4.2397e-04  2.8730e-04  0:03:26 1768
   233  1.1202e-03  1.2848e-03  4.7894e-04  2.7775e-01  1.1136e-03  4.1909e-04  2.8383e-04  0:02:45 1767
   234  9.3133e-04  1.2839e-03  4.4549e-04  2.3709e-01  9.2353e-04  4.1423e-04  2.8058e-04  0:02:12 1766
   235  7.5140e-04  1.2930e-03  4.1142e-04  2.1148e-01  7.4182e-04  4.0931e-04  2.7377e-04  0:01:46 1765
   236  5.9204e-04  1.3108e-03  3.7764e-04  2.0500e-01  5.7990e-04  4.0403e-04  2.6583e-04  0:01:24 1764
   237  4.7542e-04  1.3356e-03  3.4525e-04  2.1763e-01  4.6018e-04  3.9835e-04  2.5910e-04  0:01:07 1763
   238  4.3440e-04  1.3665e-03  3.1349e-04  2.4444e-01  4.1755e-04  3.9224e-04  2.5571e-04  0:00:54 1762
   239  4.8321e-04  1.4006e-03  2.8581e-04  2.7891e-01  4.6794e-04  3.8634e-04  2.5319e-04  0:00:43 1761
   240  5.9392e-04  1.4344e-03  2.6578e-04  3.1719e-01  5.8137e-04  3.8092e-04  2.4954e-04  0:00:34 1760
   241  7.3247e-04  1.4670e-03  2.5344e-04  3.5570e-01  7.2215e-04  3.7552e-04  2.4524e-04  0:00:28 1759
   242  8.7929e-04  1.4972e-03  2.4906e-04  3.9076e-01  8.7056e-04  3.7004e-04  2.4143e-04  0:06:14 1758

  iter  continuity  x-velocity  y-velocity  z-velocity      energy           k       omega     time/iter
   243  1.0245e-03  1.5239e-03  2.5249e-04  4.2262e-01  1.0169e-03  3.6464e-04  2.3753e-04  0:04:59 1757
   244  1.1628e-03  1.5461e-03  2.6244e-04  4.5058e-01  1.1560e-03  3.5962e-04  2.3323e-04  0:03:59 1756
   245  1.2910e-03  1.5628e-03  2.7788e-04  4.7442e-01  1.2849e-03  3.5565e-04  2.3005e-04  0:03:11 1755
   246  1.4071e-03  1.5731e-03  2.9696e-04  4.9319e-01  1.4016e-03  3.5277e-04  2.2710e-04  0:02:33 1754
   247  1.5096e-03  1.5766e-03  3.1792e-04  5.0747e-01  1.5045e-03  3.5062e-04  2.2442e-04  0:02:02 1753
   248  1.5974e-03  1.5730e-03  3.3942e-04  5.1699e-01  1.5927e-03  3.4883e-04  2.2235e-04  0:01:38 1752
   249  1.6698e-03  1.5620e-03  3.6043e-04  5.2179e-01  1.6655e-03  3.4709e-04  2.2050e-04  0:01:18 1751
   250  1.7260e-03  1.5437e-03  3.8012e-04  5.2163e-01  1.7220e-03  3.4552e-04  2.1956e-04  0:01:02 1750
   251  1.7656e-03  1.5183e-03  3.9784e-04  5.1669e-01  1.7621e-03  3.4432e-04  2.1744e-04  0:00:50 1749
   252  1.7887e-03  1.4860e-03  4.1315e-04  5.0720e-01  1.7855e-03  3.4303e-04  2.1477e-04  0:00:40 1748
   253  1.7954e-03  1.4474e-03  4.2571e-04  4.9295e-01  1.7925e-03  3.4136e-04  2.1336e-04  0:00:32 1747

  iter  continuity  x-velocity  y-velocity  z-velocity      energy           k       omega     time/iter
   254  1.7858e-03  1.4029e-03  4.3529e-04  4.7445e-01  1.7832e-03  3.3970e-04  2.1430e-04  0:00:26 1746
   255  1.7604e-03  1.3532e-03  4.4177e-04  4.5193e-01  1.7581e-03  3.3780e-04  2.1534e-04  0:00:20 1745
   256  1.7197e-03  1.2993e-03  4.4503e-04  4.2659e-01  1.7178e-03  3.3565e-04  2.1546e-04  0:06:05 1744
   257  1.6646e-03  1.2421e-03  4.4510e-04  3.9891e-01  1.6631e-03  3.3337e-04  2.1673e-04  0:04:52 1743
   258  1.5961e-03  1.1827e-03  4.4202e-04  3.6874e-01  1.5949e-03  3.3093e-04  2.1790e-04  0:03:53 1742
   259  1.5148e-03  1.1223e-03  4.3587e-04  3.3682e-01  1.5139e-03  3.2836e-04  2.1667e-04  0:03:07 1741
   260  1.4219e-03  1.0623e-03  4.2676e-04  3.0326e-01  1.4214e-03  3.2554e-04  2.1621e-04  0:02:29 1740
   261  1.3186e-03  1.0043e-03  4.1485e-04  2.6938e-01  1.3184e-03  3.2260e-04  2.1592e-04  0:01:59 1739
   262  1.2063e-03  9.4991e-04  4.0033e-04  2.3568e-01  1.2065e-03  3.1960e-04  2.1539e-04  0:01:35 1738
   263  1.0866e-03  9.0069e-04  3.8341e-04  2.0300e-01  1.0872e-03  3.1620e-04  2.1400e-04  0:01:16 1737
   264  9.6122e-04  8.5843e-04  3.6441e-04  1.7307e-01  9.6222e-04  3.1256e-04  2.1212e-04  0:01:01 1736

  iter  continuity  x-velocity  y-velocity  z-velocity      energy           k       omega     time/iter
   265  8.3227e-04  8.2450e-04  3.4366e-04  1.4663e-01  8.3371e-04  3.0873e-04  2.1060e-04  0:00:49 1735
   266  7.0250e-04  7.9993e-04  3.2151e-04  1.2643e-01  7.0441e-04  3.0463e-04  2.0799e-04  0:00:39 1734
   267  5.7566e-04  7.8524e-04  2.9838e-04  1.1547e-01  5.7812e-04  3.0035e-04  2.0574e-04  0:00:31 1733
   268  4.5790e-04  7.8030e-04  2.7479e-04  1.1504e-01  4.6098e-04  2.9631e-04  2.0244e-04  0:00:25 1732
   269  3.6058e-04  7.8435e-04  2.5132e-04  1.2383e-01  3.6428e-04  2.9208e-04  1.9735e-04  0:06:06 1731
   270  3.0406e-04  7.9603e-04  2.2869e-04  1.3882e-01  3.0798e-04  2.8752e-04  1.9186e-04  0:04:53 1730
   271  3.0893e-04  8.1368e-04  2.0774e-04  1.5661e-01  3.1216e-04  2.8251e-04  1.8679e-04  0:03:54 1729
   272  3.6876e-04  8.3549e-04  1.8949e-04  1.7481e-01  3.7080e-04  2.7724e-04  1.8250e-04  0:03:07 1728
   273  4.5808e-04  8.5968e-04  1.7504e-04  1.9202e-01  4.5909e-04  2.7183e-04  1.7837e-04  0:02:30 1727
   274  5.5829e-04  8.8469e-04  1.6546e-04  2.0734e-01  5.5854e-04  2.6659e-04  1.7436e-04  0:02:00 1726
   275  6.5987e-04  9.0914e-04  1.6145e-04  2.2075e-01  6.5956e-04  2.6146e-04  1.7068e-04  0:01:36 1725

  iter  continuity  x-velocity  y-velocity  z-velocity      energy           k       omega     time/iter
   276  7.5793e-04  9.3188e-04  1.6304e-04  2.3189e-01  7.5719e-04  2.5642e-04  1.6738e-04  0:01:16 1724
   277  8.4965e-04  9.5199e-04  1.6957e-04  2.4070e-01  8.4856e-04  2.5198e-04  1.6509e-04  0:01:01 1723
   278  9.3319e-04  9.6881e-04  1.7986e-04  2.4709e-01  9.3180e-04  2.4801e-04  1.6265e-04  0:00:49 1722
   279  1.0073e-03  9.8177e-04  1.9261e-04  2.5080e-01  1.0057e-03  2.4481e-04  1.6071e-04  0:00:39 1721
   280  1.0711e-03  9.9058e-04  2.0666e-04  2.5198e-01  1.0692e-03  2.4209e-04  1.5946e-04  0:00:31 1720
   281  1.1239e-03  9.9510e-04  2.2104e-04  2.5075e-01  1.1219e-03  2.3955e-04  1.5839e-04  0:00:25 1719
   282  1.1655e-03  9.9529e-04  2.3503e-04  2.4725e-01  1.1633e-03  2.3714e-04  1.5691e-04  0:06:04 1718
   283  1.1954e-03  9.9131e-04  2.4807e-04  2.4142e-01  1.1931e-03  2.3496e-04  1.5541e-04  0:04:51 1717
   284  1.2137e-03  9.8330e-04  2.5978e-04  2.3346e-01  1.2113e-03  2.3285e-04  1.5429e-04  0:03:52 1716
   285  1.2203e-03  9.7164e-04  2.6982e-04  2.2363e-01  1.2178e-03  2.3095e-04  1.5425e-04  0:03:06 1715
   286  1.2154e-03  9.5674e-04  2.7798e-04  2.1200e-01  1.2129e-03  2.2915e-04  1.5394e-04  0:02:29 1714

  iter  continuity  x-velocity  y-velocity  z-velocity      energy           k       omega     time/iter
   287  1.1994e-03  9.3914e-04  2.8409e-04  1.9877e-01  1.1969e-03  2.2731e-04  1.5299e-04  0:01:59 1713
   288  1.1727e-03  9.1943e-04  2.8807e-04  1.8415e-01  1.1701e-03  2.2556e-04  1.5134e-04  0:01:35 1712
   289  1.1357e-03  8.9824e-04  2.8986e-04  1.6830e-01  1.1331e-03  2.2411e-04  1.5017e-04  0:01:16 1711
   290  1.0891e-03  8.7632e-04  2.8944e-04  1.5174e-01  1.0865e-03  2.2281e-04  1.5011e-04  0:01:01 1710
   291  1.0336e-03  8.5439e-04  2.8686e-04  1.3483e-01  1.0310e-03  2.2185e-04  1.5056e-04  0:00:49 1709
   292  9.7001e-04  8.3323e-04  2.8218e-04  1.1792e-01  9.6744e-04  2.2098e-04  1.5081e-04  0:00:39 1708
   293  8.9923e-04  8.1360e-04  2.7551e-04  1.0151e-01  8.9669e-04  2.2037e-04  1.5091e-04  0:00:31 1707
   294  8.2222e-04  7.9619e-04  2.6695e-04  8.6714e-02  8.1971e-04  2.1989e-04  1.5066e-04  0:06:06 1706
   295  7.4002e-04  7.8158e-04  2.5668e-04  7.4683e-02  7.3754e-04  2.1948e-04  1.4974e-04  0:04:53 1705
   296  6.5384e-04  7.7025e-04  2.4488e-04  6.7218e-02  6.5138e-04  2.1900e-04  1.4837e-04  0:03:54 1704
   297  5.6503e-04  7.6248e-04  2.3179e-04  6.6025e-02  5.6257e-04  2.1833e-04  1.4727e-04  0:03:07 1703

  iter  continuity  x-velocity  y-velocity  z-velocity      energy           k       omega     time/iter
   298  4.7525e-04  7.5836e-04  2.1767e-04  7.1393e-02  4.7276e-04  2.1746e-04  1.4673e-04  0:02:30 1702
   299  3.8678e-04  7.5777e-04  2.0284e-04  8.0943e-02  3.8422e-04  2.1647e-04  1.4383e-04  0:02:00 1701
   300  3.0328e-04  7.6039e-04  1.8769e-04  9.2932e-02  3.0057e-04  2.1527e-04  1.4083e-04  0:01:36 1700
   301  2.3185e-04  7.6578e-04  1.7266e-04  1.0606e-01  2.2895e-04  2.1379e-04  1.3827e-04  0:01:16 1699
   302  1.8690e-04  7.7333e-04  1.5830e-04  1.1938e-01  1.8396e-04  2.1211e-04  1.3628e-04  0:01:01 1698
   303  1.8649e-04  7.8240e-04  1.4525e-04  1.3258e-01  1.8409e-04  2.1037e-04  1.3480e-04  0:00:49 1697
   304  2.2783e-04  7.9230e-04  1.3424e-04  1.4510e-01  2.2622e-04  2.0852e-04  1.3248e-04  0:00:39 1696
   305  2.9042e-04  8.0234e-04  1.2608e-04  1.5639e-01  2.8936e-04  2.0656e-04  1.2974e-04  0:00:31 1695
   306  3.6006e-04  8.1189e-04  1.2142e-04  1.6643e-01  3.5932e-04  2.0444e-04  1.2755e-04  0:00:25 1694
   307  4.3013e-04  8.2039e-04  1.2064e-04  1.7536e-01  4.2956e-04  2.0232e-04  1.2557e-04  0:05:59 1693
   308  4.9740e-04  8.2735e-04  1.2362e-04  1.8287e-01  4.9693e-04  2.0012e-04  1.2405e-04  0:04:47 1692

  iter  continuity  x-velocity  y-velocity  z-velocity      energy           k       omega     time/iter
   309  5.6008e-04  8.3236e-04  1.2980e-04  1.8886e-01  5.5966e-04  1.9803e-04  1.2293e-04  0:03:49 1691
   310  6.1703e-04  8.3507e-04  1.3838e-04  1.9343e-01  6.1664e-04  1.9615e-04  1.2197e-04  0:03:03 1690
   311  6.6747e-04  8.3525e-04  1.4852e-04  1.9659e-01  6.6710e-04  1.9464e-04  1.2109e-04  0:02:27 1689
   312  7.1086e-04  8.3276e-04  1.5947e-04  1.9842e-01  7.1049e-04  1.9374e-04  1.2068e-04  0:01:57 1688
   313  7.4679e-04  8.2750e-04  1.7063e-04  1.9883e-01  7.4643e-04  1.9330e-04  1.2018e-04  0:01:34 1687
   314  7.7501e-04  8.1947e-04  1.8152e-04  1.9795e-01  7.7465e-04  1.9295e-04  1.1971e-04  0:01:15 1686
   315  7.9537e-04  8.0872e-04  1.9177e-04  1.9579e-01  7.9501e-04  1.9257e-04  1.1935e-04  0:01:00 1685
   316  8.0782e-04  7.9539e-04  2.0111e-04  1.9222e-01  8.0746e-04  1.9226e-04  1.1920e-04  0:00:48 1684
   317  8.1241e-04  7.7969e-04  2.0933e-04  1.8714e-01  8.1204e-04  1.9195e-04  1.1930e-04  0:00:38 1683
   318  8.0927e-04  7.6190e-04  2.1627e-04  1.8066e-01  8.0889e-04  1.9175e-04  1.1940e-04  0:00:31 1682
   319  7.9861e-04  7.4233e-04  2.2182e-04  1.7289e-01  7.9822e-04  1.9146e-04  1.1939e-04  0:00:24 1681

  iter  continuity  x-velocity  y-velocity  z-velocity      energy           k       omega     time/iter
   320  7.8073e-04  7.2141e-04  2.2590e-04  1.6394e-01  7.8032e-04  1.9113e-04  1.1930e-04  0:05:56 1680
   321  7.5598e-04  6.9954e-04  2.2849e-04  1.5390e-01  7.5553e-04  1.9065e-04  1.1916e-04  0:04:44 1679
   322  7.2480e-04  6.7722e-04  2.2956e-04  1.4308e-01  7.2431e-04  1.9003e-04  1.1913e-04  0:03:47 1678
   323  6.8769e-04  6.5498e-04  2.2913e-04  1.3164e-01  6.8713e-04  1.8920e-04  1.1858e-04  0:03:02 1677
   324  6.4522e-04  6.3336e-04  2.2722e-04  1.1962e-01  6.4457e-04  1.8824e-04  1.1761e-04  0:02:25 1676
   325  5.9803e-04  6.1290e-04  2.2390e-04  1.0732e-01  5.9725e-04  1.8722e-04  1.1708e-04  0:01:56 1675
   326  5.4681e-04  5.9413e-04  2.1923e-04  9.4968e-02  5.4587e-04  1.8616e-04  1.1637e-04  0:01:33 1674
   327  4.9238e-04  5.7753e-04  2.1332e-04  8.2947e-02  4.9120e-04  1.8503e-04  1.1579e-04  0:01:14 1673
   328  4.3564e-04  5.6352e-04  2.0628e-04  7.1735e-02  4.3415e-04  1.8382e-04  1.1519e-04  0:00:59 1672
   329  3.7771e-04  5.5240e-04  1.9822e-04  6.1674e-02  3.7578e-04  1.8248e-04  1.1446e-04  0:00:47 1671
   330  3.2003e-04  5.4435e-04  1.8931e-04  5.3331e-02  3.1747e-04  1.8096e-04  1.1326e-04  0:00:38 1670

  iter  continuity  x-velocity  y-velocity  z-velocity      energy           k       omega     time/iter
   331  2.6468e-04  5.3939e-04  1.7969e-04  4.7539e-02  2.6122e-04  1.7942e-04  1.1202e-04  0:00:30 1669
   332  2.1505e-04  5.3739e-04  1.6956e-04  4.4874e-02  2.1031e-04  1.7812e-04  1.1078e-04  0:00:24 1668
   333  1.7694e-04  5.3810e-04  1.5910e-04  4.5508e-02  1.7055e-04  1.7671e-04  1.0914e-04  0:05:53 1667
   334  1.5874e-04  5.4113e-04  1.4853e-04  4.8904e-02  1.5091e-04  1.7486e-04  1.0662e-04  0:04:42 1666
   335  1.6597e-04  5.4601e-04  1.3810e-04  5.4051e-02  1.5786e-04  1.7292e-04  1.0390e-04  0:03:46 1665
   336  1.9410e-04  5.5225e-04  1.2805e-04  6.0087e-02  1.8669e-04  1.7085e-04  1.0151e-04  0:03:00 1664
   337  2.3376e-04  5.5935e-04  1.1868e-04  6.6412e-02  2.2724e-04  1.6881e-04  1.0021e-04  0:02:24 1663
   338  2.7803e-04  5.6681e-04  1.1027e-04  7.2532e-02  2.7226e-04  1.6675e-04  9.9169e-05  0:01:55 1662
   339  3.2299e-04  5.7421e-04  1.0313e-04  7.8182e-02  3.1780e-04  1.6453e-04  9.8137e-05  0:01:32 1661
   340  3.6645e-04  5.8115e-04  9.7510e-05  8.3118e-02  3.6171e-04  1.6235e-04  9.6945e-05  0:01:14 1660
   341  4.0711e-04  5.8731e-04  9.3584e-05  8.7272e-02  4.0272e-04  1.6021e-04  9.5798e-05  0:00:59 1659

  iter  continuity  x-velocity  y-velocity  z-velocity      energy           k       omega     time/iter
   342  4.4410e-04  5.9242e-04  9.1407e-05  9.0865e-02  4.3999e-04  1.5812e-04  9.4381e-05  0:00:47 1658
   343  4.7682e-04  5.9628e-04  9.0880e-05  9.3812e-02  4.7295e-04  1.5637e-04  9.3150e-05  0:00:38 1657
   344  5.0485e-04  5.9873e-04  9.1763e-05  9.5978e-02  5.0119e-04  1.5477e-04  9.2168e-05  0:06:01 1656
   345  5.2790e-04  5.9971e-04  9.3725e-05  9.7335e-02  5.2443e-04  1.5319e-04  9.1278e-05  0:04:49 1655
   346  5.4577e-04  5.9919e-04  9.6403e-05  9.7772e-02  5.4246e-04  1.5164e-04  9.0503e-05  0:03:51 1654
   347  5.5834e-04  5.9718e-04  9.9449e-05  9.7330e-02  5.5518e-04  1.5040e-04  8.9701e-05  0:03:05 1653
   348  5.6556e-04  5.9378e-04  1.0256e-04  9.5991e-02  5.6256e-04  1.4911e-04  8.9058e-05  0:02:28 1652
   349  5.6746e-04  5.8909e-04  1.0547e-04  9.3756e-02  5.6460e-04  1.4779e-04  8.8463e-05  0:01:58 1651
   350  5.6412e-04  5.8328e-04  1.0801e-04  9.0671e-02  5.6140e-04  1.4658e-04  8.7895e-05  0:01:34 1650
   351  5.5569e-04  5.7652e-04  1.1001e-04  8.6787e-02  5.5311e-04  1.4543e-04  8.7365e-05  0:01:15 1649
   352  5.4236e-04  5.6904e-04  1.1137e-04  8.2159e-02  5.3991e-04  1.4418e-04  8.6998e-05  0:01:00 1648

  iter  continuity  x-velocity  y-velocity  z-velocity      energy           k       omega     time/iter
   353  5.2437e-04  5.6107e-04  1.1204e-04  7.6865e-02  5.2207e-04  1.4292e-04  8.6859e-05  0:00:48 1647
   354  5.0203e-04  5.5284e-04  1.1198e-04  7.1023e-02  4.9986e-04  1.4174e-04  8.6195e-05  0:00:39 1646
   355  4.7566e-04  5.4462e-04  1.1118e-04  6.4766e-02  4.7363e-04  1.4075e-04  8.5375e-05  0:00:31 1645
   356  4.4565e-04  5.3664e-04  1.0968e-04  5.8205e-02  4.4376e-04  1.3981e-04  8.4983e-05  0:05:53 1644
   357  4.1240e-04  5.2913e-04  1.0753e-04  5.1578e-02  4.1066e-04  1.3891e-04  8.5119e-05  0:04:43 1643
   358  3.7638e-04  5.2230e-04  1.0481e-04  4.5020e-02  3.7479e-04  1.3802e-04  8.5212e-05  0:03:46 1642
   359  3.3809e-04  5.1630e-04  1.0163e-04  3.8759e-02  3.3665e-04  1.3717e-04  8.5233e-05  0:03:01 1641
   360  2.9809e-04  5.1127e-04  9.8119e-05  3.3473e-02  2.9682e-04  1.3634e-04  8.5134e-05  0:02:24 1640
   361  2.5704e-04  5.0727e-04  9.4440e-05  2.9676e-02  2.5594e-04  1.3562e-04  8.4499e-05  0:01:55 1639
   362  2.1574e-04  5.0431e-04  9.0788e-05  2.7955e-02  2.1484e-04  1.3487e-04  8.3338e-05  0:01:32 1638
   363  1.7532e-04  5.0236e-04  8.7384e-05  2.8804e-02  1.7465e-04  1.3405e-04  8.2281e-05  0:01:14 1637

  iter  continuity  x-velocity  y-velocity  z-velocity      energy           k       omega     time/iter
   364  1.3764e-04  5.0133e-04  8.4464e-05  3.1828e-02  1.3727e-04  1.3305e-04  8.1534e-05  0:00:59 1636
   365  1.0626e-04  5.0109e-04  8.2271e-05  3.6161e-02  1.0630e-04  1.3198e-04  8.0886e-05  0:00:47 1635
   366  8.7966e-05  5.0148e-04  8.1022e-05  4.1278e-02  8.8512e-05  1.3083e-04  8.0247e-05  0:00:38 1634
   367  8.9990e-05  5.0230e-04  8.0878e-05  4.6697e-02  9.0895e-05  1.2963e-04  7.9523e-05  0:00:30 1633
   368  1.0974e-04  5.0336e-04  8.1920e-05  5.2114e-02  1.1070e-04  1.2840e-04  7.8707e-05  0:05:51 1632
   369  1.3829e-04  5.0445e-04  8.4133e-05  5.7282e-02  1.3916e-04  1.2719e-04  7.7806e-05  0:04:40 1631
   370  1.6969e-04  5.0538e-04  8.7412e-05  6.2059e-02  1.7044e-04  1.2602e-04  7.6846e-05  0:03:44 1630
   371  2.0110e-04  5.0595e-04  9.1588e-05  6.6335e-02  2.0173e-04  1.2499e-04  7.5837e-05  0:02:59 1629
   372  2.3110e-04  5.0602e-04  9.6456e-05  7.0077e-02  2.3162e-04  1.2406e-04  7.4882e-05  0:02:23 1628
   373  2.5887e-04  5.0543e-04  1.0181e-04  7.3212e-02  2.5929e-04  1.2327e-04  7.3973e-05  0:01:55 1627
   374  2.8391e-04  5.0410e-04  1.0744e-04  7.5739e-02  2.8424e-04  1.2254e-04  7.3176e-05  0:01:32 1626

  iter  continuity  x-velocity  y-velocity  z-velocity      energy           k       omega     time/iter
   375  3.0587e-04  5.0192e-04  1.1316e-04  7.7635e-02  3.0611e-04  1.2190e-04  7.2453e-05  0:01:13 1625
   376  3.2452e-04  4.9885e-04  1.1882e-04  7.8841e-02  3.2468e-04  1.2140e-04  7.1789e-05  0:00:59 1624
   377  3.3968e-04  4.9488e-04  1.2427e-04  7.9380e-02  3.3977e-04  1.2105e-04  7.1263e-05  0:00:47 1623
   378  3.5126e-04  4.9000e-04  1.2940e-04  7.9240e-02  3.5127e-04  1.2070e-04  7.0855e-05  0:06:02 1622
   379  3.5920e-04  4.8427e-04  1.3412e-04  7.8433e-02  3.5915e-04  1.2028e-04  7.0430e-05  0:04:49 1621
   380  3.6352e-04  4.7775e-04  1.3834e-04  7.7002e-02  3.6340e-04  1.1991e-04  7.0020e-05  0:03:51 1620
   381  3.6432e-04  4.7055e-04  1.4200e-04  7.4970e-02  3.6413e-04  1.1957e-04  6.9656e-05  0:03:05 1619
   382  3.6167e-04  4.6280e-04  1.4507e-04  7.2371e-02  3.6141e-04  1.1920e-04  6.9319e-05  0:02:28 1618
   383  3.5560e-04  4.5460e-04  1.4750e-04  6.9283e-02  3.5527e-04  1.1889e-04  6.9073e-05  0:01:58 1617
   384  3.4630e-04  4.4612e-04  1.4927e-04  6.5682e-02  3.4588e-04  1.1858e-04  6.8917e-05  0:01:34 1616
   385  3.3399e-04  4.3753e-04  1.5036e-04  6.1597e-02  3.3347e-04  1.1824e-04  6.8726e-05  0:01:16 1615

  iter  continuity  x-velocity  y-velocity  z-velocity      energy           k       omega     time/iter
   386  3.1894e-04  4.2900e-04  1.5078e-04  5.7134e-02  3.1831e-04  1.1782e-04  6.8564e-05  0:01:00 1614
   387  3.0143e-04  4.2071e-04  1.5055e-04  5.2353e-02  3.0067e-04  1.1731e-04  6.8379e-05  0:00:48 1613
   388  2.8181e-04  4.1282e-04  1.4967e-04  4.7290e-02  2.8088e-04  1.1674e-04  6.8245e-05  0:00:39 1612
   389  2.6045e-04  4.0546e-04  1.4817e-04  4.2175e-02  2.5932e-04  1.1604e-04  6.8099e-05  0:05:53 1611
   390  2.3777e-04  3.9881e-04  1.4610e-04  3.7106e-02  2.3641e-04  1.1533e-04  6.7799e-05  0:04:42 1610
   391  2.1430e-04  3.9297e-04  1.4351e-04  3.2165e-02  2.1262e-04  1.1464e-04  6.7434e-05  0:03:46 1609
   392  1.9064e-04  3.8801e-04  1.4043e-04  2.7686e-02  1.8857e-04  1.1401e-04  6.7124e-05  0:03:00 1608
   393  1.6761e-04  3.8399e-04  1.3692e-04  2.3855e-02  1.6503e-04  1.1342e-04  6.6754e-05  0:02:24 1607
   394  1.4629e-04  3.8090e-04  1.3306e-04  2.1169e-02  1.4307e-04  1.1285e-04  6.6299e-05  0:01:55 1606
   395  1.2814e-04  3.7871e-04  1.2890e-04  2.0076e-02  1.2416e-04  1.1218e-04  6.5813e-05  0:01:32 1605
   396  1.1504e-04  3.7737e-04  1.2452e-04  2.0666e-02  1.1025e-04  1.1142e-04  6.5261e-05  0:01:14 1604

  iter  continuity  x-velocity  y-velocity  z-velocity      energy           k       omega     time/iter
   397  1.0885e-04  3.7674e-04  1.1997e-04  2.2587e-02  1.0343e-04  1.1058e-04  6.4668e-05  0:00:59 1603
   398  1.1039e-04  3.7675e-04  1.1535e-04  2.5408e-02  1.0471e-04  1.0964e-04  6.4027e-05  0:00:47 1602
   399  1.1881e-04  3.7726e-04  1.1072e-04  2.8696e-02  1.1326e-04  1.0868e-04  6.3236e-05  0:00:38 1601
   400  1.3215e-04  3.7813e-04  1.0616e-04  3.2113e-02  1.2694e-04  1.0764e-04  6.2407e-05  0:00:30 1600
   401  1.4832e-04  3.7920e-04  1.0174e-04  3.5404e-02  1.4350e-04  1.0655e-04  6.1427e-05  0:05:44 1599
   402  1.6570e-04  3.8034e-04  9.7519e-05  3.8461e-02  1.6125e-04  1.0542e-04  6.0431e-05  0:04:35 1598
   403  1.8328e-04  3.8141e-04  9.3598e-05  4.1228e-02  1.7916e-04  1.0430e-04  5.9578e-05  0:03:40 1597
   404  2.0009e-04  3.8228e-04  8.9976e-05  4.3632e-02  1.9624e-04  1.0313e-04  5.8818e-05  0:02:56 1596
   405  2.1558e-04  3.8289e-04  8.6692e-05  4.5655e-02  2.1195e-04  1.0191e-04  5.8099e-05  0:02:21 1595
   406  2.2939e-04  3.8315e-04  8.3772e-05  4.7286e-02  2.2595e-04  1.0073e-04  5.7414e-05  0:01:52 1594
   407  2.4130e-04  3.8301e-04  8.1227e-05  4.8508e-02  2.3803e-04  9.9791e-05  5.6872e-05  0:01:30 1593

  iter  continuity  x-velocity  y-velocity  z-velocity      energy           k       omega     time/iter
   408  2.5114e-04  3.8242e-04  7.9051e-05  4.9286e-02  2.4801e-04  9.8923e-05  5.6365e-05  0:01:12 1592
   409  2.5879e-04  3.8137e-04  7.7226e-05  4.9599e-02  2.5579e-04  9.8079e-05  5.5836e-05  0:00:57 1591
   410  2.6416e-04  3.7985e-04  7.5720e-05  4.9431e-02  2.6128e-04  9.7292e-05  5.5426e-05  0:00:46 1590
   411  2.6724e-04  3.7788e-04  7.4492e-05  4.8817e-02  2.6445e-04  9.6556e-05  5.5077e-05  0:00:37 1589
   412  2.6799e-04  3.7547e-04  7.3494e-05  4.7784e-02  2.6531e-04  9.5876e-05  5.4708e-05  0:00:29 1588
   413  2.6647e-04  3.7267e-04  7.2677e-05  4.6404e-02  2.6387e-04  9.5192e-05  5.4319e-05  0:05:41 1587
   414  2.6272e-04  3.6955e-04  7.1993e-05  4.4674e-02  2.6021e-04  9.4480e-05  5.4002e-05  0:04:33 1586
   415  2.5685e-04  3.6617e-04  7.1399e-05  4.2602e-02  2.5440e-04  9.3759e-05  5.3759e-05  0:03:38 1585
   416  2.4895e-04  3.6259e-04  7.0859e-05  4.0189e-02  2.4658e-04  9.3003e-05  5.3602e-05  0:02:54 1584
   417  2.3918e-04  3.5889e-04  7.0346e-05  3.7532e-02  2.3687e-04  9.2272e-05  5.3494e-05  0:02:19 1583
   418  2.2768e-04  3.5513e-04  6.9844e-05  3.4641e-02  2.2543e-04  9.1566e-05  5.3367e-05  0:01:51 1582

  iter  continuity  x-velocity  y-velocity  z-velocity      energy           k       omega     time/iter
   419  2.1464e-04  3.5138e-04  6.9347e-05  3.1521e-02  2.1243e-04  9.0852e-05  5.3222e-05  0:01:29 1581
   420  2.0026e-04  3.4771e-04  6.8858e-05  2.8263e-02  1.9810e-04  9.0152e-05  5.2937e-05  0:01:11 1580
   421  1.8478e-04  3.4417e-04  6.8389e-05  2.4978e-02  1.8264e-04  8.9475e-05  5.2529e-05  0:00:57 1579
   422  1.6843e-04  3.4082e-04  6.7964e-05  2.1709e-02  1.6632e-04  8.8804e-05  5.2253e-05  0:00:45 1578
   423  1.5153e-04  3.3769e-04  6.7611e-05  1.8654e-02  1.4942e-04  8.8167e-05  5.1957e-05  0:05:52 1577
   424  1.3439e-04  3.3479e-04  6.7362e-05  1.6054e-02  1.3228e-04  8.7526e-05  5.1460e-05  0:04:41 1576
   425  1.1743e-04  3.3214e-04  6.7249e-05  1.4106e-02  1.1529e-04  8.6855e-05  5.0915e-05  0:03:45 1575
   426  1.0119e-04  3.2973e-04  6.7304e-05  1.3110e-02  9.9015e-05  8.6153e-05  5.0457e-05  0:03:00 1574
   427  8.6436e-05  3.2754e-04  6.7555e-05  1.3303e-02  8.4204e-05  8.5402e-05  5.0030e-05  0:02:24 1573
   428  7.4221e-05  3.2555e-04  6.8022e-05  1.4569e-02  7.1960e-05  8.4623e-05  4.9567e-05  0:01:55 1572
   429  6.5945e-05  3.2370e-04  6.8720e-05  1.6513e-02  6.3740e-05  8.3838e-05  4.9060e-05  0:01:32 1571

  iter  continuity  x-velocity  y-velocity  z-velocity      energy           k       omega     time/iter
   430  6.2902e-05  3.2196e-04  6.9652e-05  1.8864e-02  6.0908e-05  8.3027e-05  4.8500e-05  0:06:27 1570
   431  6.5360e-05  3.2027e-04  7.0813e-05  2.1409e-02  6.3710e-05  8.2226e-05  4.7971e-05  0:05:10 1569
   432  7.2190e-05  3.1858e-04  7.2185e-05  2.3937e-02  7.0902e-05  8.1442e-05  4.7425e-05  0:04:08 1568
   433  8.1726e-05  3.1694e-04  7.3843e-05  2.6344e-02  8.0735e-05  8.0688e-05  4.6869e-05  0:03:18 1567
   434  9.2520e-05  3.1530e-04  7.6092e-05  2.8593e-02  9.1748e-05  7.9915e-05  4.6279e-05  0:02:38 1566
   435  1.0354e-04  3.1340e-04  7.8266e-05  3.0593e-02  1.0292e-04  7.9159e-05  4.5667e-05  0:02:07 1565
   436  1.1420e-04  3.1127e-04  8.0359e-05  3.2295e-02  1.1369e-04  7.8460e-05  4.5093e-05  0:01:41 1564
   437  1.2411e-04  3.0891e-04  8.2402e-05  3.3684e-02  1.2367e-04  7.7769e-05  4.4568e-05  0:01:21 1563
   438  1.3300e-04  3.0632e-04  8.4403e-05  3.4757e-02  1.3261e-04  7.7105e-05  4.4056e-05  0:01:05 1562
   439  1.4069e-04  3.0347e-04  8.6341e-05  3.5517e-02  1.4033e-04  7.6454e-05  4.3583e-05  0:00:52 1561
   440  1.4707e-04  3.0036e-04  8.8185e-05  3.5964e-02  1.4672e-04  7.5842e-05  4.3129e-05  0:00:41 1560

  iter  continuity  x-velocity  y-velocity  z-velocity      energy           k       omega     time/iter
   441  1.5205e-04  2.9699e-04  8.9902e-05  3.6096e-02  1.5171e-04  7.5262e-05  4.2695e-05  0:05:45 1559
   442  1.5561e-04  2.9337e-04  9.1464e-05  3.5914e-02  1.5525e-04  7.4686e-05  4.2299e-05  0:04:36 1558
   443  1.5772e-04  2.8953e-04  9.2847e-05  3.5443e-02  1.5735e-04  7.4124e-05  4.1901e-05  0:03:40 1557
   444  1.5840e-04  2.8549e-04  9.4030e-05  3.4682e-02  1.5800e-04  7.3566e-05  4.1518e-05  0:02:56 1556
   445  1.5769e-04  2.8131e-04  9.4998e-05  3.3650e-02  1.5726e-04  7.3052e-05  4.1149e-05  0:02:21 1555
   446  1.5564e-04  2.7702e-04  9.5739e-05  3.2342e-02  1.5517e-04  7.2563e-05  4.0802e-05  0:01:53 1554
   447  1.5234e-04  2.7269e-04  9.6245e-05  3.0773e-02  1.5180e-04  7.2047e-05  4.0515e-05  0:01:30 1553
   448  1.4786e-04  2.6835e-04  9.6510e-05  2.8968e-02  1.4726e-04  7.1505e-05  4.0233e-05  0:01:12 1552
   449  1.4234e-04  2.6407e-04  9.6539e-05  2.6949e-02  1.4166e-04  7.0932e-05  4.0000e-05  0:00:58 1551
   450  1.3590e-04  2.5991e-04  9.6334e-05  2.4777e-02  1.3513e-04  7.0342e-05  3.9810e-05  0:00:46 1550
   451  1.2871e-04  2.5591e-04  9.5896e-05  2.2488e-02  1.2781e-04  6.9738e-05  3.9604e-05  0:00:37 1549

  iter  continuity  x-velocity  y-velocity  z-velocity      energy           k       omega     time/iter
   452  1.2093e-04  2.5212e-04  9.5232e-05  2.0096e-02  1.1989e-04  6.9127e-05  3.9367e-05  0:05:39 1548
   453  1.1278e-04  2.4858e-04  9.4352e-05  1.7706e-02  1.1156e-04  6.8499e-05  3.9103e-05  0:04:31 1547
   454  1.0451e-04  2.4534e-04  9.3272e-05  1.5355e-02  1.0308e-04  6.7855e-05  3.8829e-05  0:03:37 1546
   455  9.6399e-05  2.4242e-04  9.2008e-05  1.3204e-02  9.4722e-05  6.7198e-05  3.8539e-05  0:02:53 1545
   456  8.8786e-05  2.3981e-04  9.0579e-05  1.1381e-02  8.6821e-05  6.6527e-05  3.8240e-05  0:02:19 1544
   457  8.2059e-05  2.3755e-04  8.9005e-05  1.0080e-02  7.9774e-05  6.5879e-05  3.7923e-05  0:01:51 1543
   458  7.6640e-05  2.3563e-04  8.7308e-05  9.5023e-03  7.4018e-05  6.5268e-05  3.7578e-05  0:01:29 1542
   459  7.2928e-05  2.3403e-04  8.5511e-05  9.7817e-03  6.9990e-05  6.4631e-05  3.7232e-05  0:01:11 1541
   460  7.1212e-05  2.3272e-04  8.3639e-05  1.0791e-02  6.8021e-05  6.3989e-05  3.6873e-05  0:00:57 1540
   461  7.1569e-05  2.3168e-04  8.1713e-05  1.2211e-02  6.8223e-05  6.3328e-05  3.6472e-05  0:00:45 1539
   462  7.3831e-05  2.3086e-04  7.9759e-05  1.3833e-02  7.0433e-05  6.2650e-05  3.6028e-05  0:05:44 1538

  iter  continuity  x-velocity  y-velocity  z-velocity      energy           k       omega     time/iter
   463  7.7634e-05  2.3022e-04  7.7799e-05  1.5512e-02  7.4270e-05  6.1950e-05  3.5563e-05  0:04:35 1537
   464  8.2531e-05  2.2972e-04  7.5854e-05  1.7159e-02  7.9254e-05  6.1241e-05  3.5079e-05  0:03:40 1536
   465  8.8083e-05  2.2931e-04  7.3946e-05  1.8728e-02  8.4921e-05  6.0516e-05  3.4560e-05  0:02:56 1535
   466  9.3909e-05  2.2896e-04  7.2091e-05  2.0162e-02  9.0871e-05  5.9773e-05  3.4034e-05  0:02:20 1534
   467  9.9703e-05  2.2861e-04  7.0306e-05  2.1436e-02  9.6785e-05  5.9043e-05  3.3509e-05  0:01:52 1533
   468  1.0522e-04  2.2825e-04  6.8605e-05  2.2540e-02  1.0242e-04  5.8321e-05  3.3017e-05  0:01:30 1532
   469  1.1028e-04  2.2782e-04  6.6998e-05  2.3438e-02  1.0758e-04  5.7603e-05  3.2540e-05  0:01:12 1531
   470  1.1474e-04  2.2732e-04  6.5493e-05  2.4142e-02  1.1213e-04  5.6914e-05  3.2095e-05  0:00:57 1530
   471  1.1848e-04  2.2672e-04  6.4095e-05  2.4649e-02  1.1596e-04  5.6298e-05  3.1689e-05  0:00:46 1529
   472  1.2145e-04  2.2600e-04  6.2808e-05  2.4957e-02  1.1901e-04  5.5716e-05  3.1357e-05  0:00:37 1528
   473  1.2358e-04  2.2516e-04  6.1630e-05  2.5058e-02  1.2121e-04  5.5158e-05  3.1035e-05  0:05:35 1527

  iter  continuity  x-velocity  y-velocity  z-velocity      energy           k       omega     time/iter
   474  1.2485e-04  2.2419e-04  6.0558e-05  2.4952e-02  1.2254e-04  5.4624e-05  3.0743e-05  0:04:28 1526
   475  1.2521e-04  2.2300e-04  5.9451e-05  2.4643e-02  1.2296e-04  5.4095e-05  3.0497e-05  0:03:34 1525
   476  1.2470e-04  2.2177e-04  5.8515e-05  2.4140e-02  1.2250e-04  5.3587e-05  3.0283e-05  0:02:51 1524
   477  1.2333e-04  2.2044e-04  5.7700e-05  2.3439e-02  1.2117e-04  5.3095e-05  3.0070e-05  0:02:17 1523
   478  1.2112e-04  2.1902e-04  5.6983e-05  2.2553e-02  1.1901e-04  5.2603e-05  2.9872e-05  0:01:49 1522
   479  1.1815e-04  2.1761e-04  5.6440e-05  2.1494e-02  1.1608e-04  5.2101e-05  2.9704e-05  0:01:27 1521
   480  1.1446e-04  2.1621e-04  5.6023e-05  2.0273e-02  1.1242e-04  5.1597e-05  2.9594e-05  0:01:10 1520
   481  1.1010e-04  2.1480e-04  5.5700e-05  1.8912e-02  1.0808e-04  5.1093e-05  2.9477e-05  0:00:56 1519
   482  1.0515e-04  2.1339e-04  5.5465e-05  1.7424e-02  1.0315e-04  5.0585e-05  2.9352e-05  0:00:45 1518
   483  9.9693e-05  2.1201e-04  5.5307e-05  1.5840e-02  9.7706e-05  5.0076e-05  2.9205e-05  0:00:36 1517
   484  9.3821e-05  2.1067e-04  5.5221e-05  1.4186e-02  9.1840e-05  4.9594e-05  2.9028e-05  0:00:29 1516

  iter  continuity  x-velocity  y-velocity  z-velocity      energy           k       omega     time/iter
   485  8.7652e-05  2.0937e-04  5.5204e-05  1.2505e-02  8.5671e-05  4.9100e-05  2.8838e-05  0:05:26 1515
   486  8.1316e-05  2.0814e-04  5.5256e-05  1.0850e-02  7.9326e-05  4.8611e-05  2.8626e-05  0:04:20 1514
   487  7.4957e-05  2.0698e-04  5.5377e-05  9.2700e-03  7.2952e-05  4.8129e-05  2.8377e-05  0:03:28 1513
   488  6.8741e-05  2.0589e-04  5.5567e-05  7.8410e-03  6.6716e-05  4.7663e-05  2.8105e-05  0:02:46 1512
   489  6.2860e-05  2.0486e-04  5.5824e-05  6.6880e-03  6.0813e-05  4.7185e-05  2.7816e-05  0:02:13 1511
   490  5.7536e-05  2.0390e-04  5.6149e-05  5.9878e-03  5.5471e-05  4.6692e-05  2.7501e-05  0:01:46 1510
   491  5.3012e-05  2.0300e-04  5.6539e-05  5.8547e-03  5.0945e-05  4.6205e-05  2.7160e-05  0:01:25 1509
   492  4.9534e-05  2.0214e-04  5.6991e-05  6.2719e-03  4.7496e-05  4.5725e-05  2.6795e-05  0:01:08 1508
   493  4.7309e-05  2.0131e-04  5.7501e-05  7.0843e-03  4.5343e-05  4.5241e-05  2.6424e-05  0:00:54 1507
   494  4.6437e-05  2.0051e-04  5.8063e-05  8.1008e-03  4.4590e-05  4.4752e-05  2.6052e-05  0:00:43 1506
   495  4.6872e-05  1.9971e-04  5.8670e-05  9.2052e-03  4.5181e-05  4.4262e-05  2.5670e-05  0:05:36 1505

  iter  continuity  x-velocity  y-velocity  z-velocity      energy           k       omega     time/iter
   496  4.8422e-05  1.9890e-04  5.9316e-05  1.0299e-02  4.6904e-05  4.3769e-05  2.5293e-05  0:04:28 1504
   497  5.0810e-05  1.9807e-04  5.9992e-05  1.1313e-02  4.9462e-05  4.3278e-05  2.4940e-05  0:03:35 1503
   498  5.3744e-05  1.9721e-04  6.0691e-05  1.2229e-02  5.2547e-05  4.2788e-05  2.4598e-05  0:02:52 1502
   499  5.6954e-05  1.9630e-04  6.1401e-05  1.3028e-02  5.5886e-05  4.2298e-05  2.4255e-05  0:02:17 1501
   500  6.0224e-05  1.9534e-04  6.2114e-05  1.3697e-02  5.9260e-05  4.1813e-05  2.3923e-05  0:01:50 1500
   501  6.3383e-05  1.9432e-04  6.2821e-05  1.4236e-02  6.2501e-05  4.1343e-05  2.3598e-05  0:01:28 1499
   502  6.6304e-05  1.9324e-04  6.3511e-05  1.4640e-02  6.5484e-05  4.0896e-05  2.3305e-05  0:01:10 1498
   503  6.8895e-05  1.9211e-04  6.4176e-05  1.4908e-02  6.8119e-05  4.0464e-05  2.3047e-05  0:00:56 1497
   504  7.1090e-05  1.9092e-04  6.4809e-05  1.5044e-02  7.0343e-05  4.0053e-05  2.2808e-05  0:00:45 1496
   505  7.2845e-05  1.8968e-04  6.5402e-05  1.5054e-02  7.2115e-05  3.9668e-05  2.2592e-05  0:00:36 1495
   506  7.4137e-05  1.8839e-04  6.5949e-05  1.4935e-02  7.3412e-05  3.9312e-05  2.2397e-05  0:00:29 1494

  iter  continuity  x-velocity  y-velocity  z-velocity      energy           k       omega     time/iter
   507  7.5160e-05  1.8710e-04  6.6416e-05  1.4686e-02  7.4430e-05  3.8965e-05  2.2221e-05  0:05:21 1493
   508  7.5720e-05  1.8581e-04  6.6859e-05  1.4302e-02  7.4977e-05  3.8627e-05  2.2036e-05  0:04:17 1492
   509  7.5663e-05  1.8452e-04  6.7262e-05  1.3793e-02  7.4895e-05  3.8289e-05  2.1845e-05  0:03:25 1491
   510  7.5106e-05  1.8324e-04  6.7609e-05  1.3168e-02  7.4302e-05  3.7940e-05  2.1651e-05  0:02:44 1490
   511  7.4155e-05  1.8199e-04  6.7892e-05  1.2443e-02  7.3306e-05  3.7581e-05  2.1478e-05  0:02:11 1489
   512  7.2889e-05  1.8079e-04  6.8112e-05  1.1623e-02  7.1987e-05  3.7217e-05  2.1345e-05  0:01:45 1488
   513  7.1376e-05  1.7966e-04  6.8269e-05  1.0726e-02  7.0409e-05  3.6872e-05  2.1220e-05  0:01:24 1487
   514  6.9677e-05  1.7862e-04  6.8369e-05  9.7761e-03  6.8637e-05  3.6527e-05  2.1092e-05  0:01:07 1486
   515  6.7859e-05  1.7769e-04  6.8416e-05  8.8026e-03  6.6734e-05  3.6179e-05  2.0975e-05  0:00:54 1485
   516  6.5994e-05  1.7689e-04  6.8416e-05  7.8290e-03  6.4777e-05  3.5843e-05  2.0860e-05  0:00:43 1484
   517  6.4164e-05  1.7622e-04  6.8375e-05  6.8877e-03  6.2845e-05  3.5505e-05  2.0751e-05  0:05:31 1483

  iter  continuity  x-velocity  y-velocity  z-velocity      energy           k       omega     time/iter
   518  6.2454e-05  1.7570e-04  6.8299e-05  6.0292e-03  6.1028e-05  3.5163e-05  2.0563e-05  0:04:25 1482
   519  6.0952e-05  1.7528e-04  6.8191e-05  5.3420e-03  5.9415e-05  3.4815e-05  2.0367e-05  0:03:31 1481
   520  5.9753e-05  1.7503e-04  6.8067e-05  4.8880e-03  5.8105e-05  3.4463e-05  2.0171e-05  0:02:49 1480
   521  5.8935e-05  1.7496e-04  6.7939e-05  4.7263e-03  5.7182e-05  3.4118e-05  1.9985e-05  0:02:15 1479
   522  5.8548e-05  1.7508e-04  6.7813e-05  4.8858e-03  5.6699e-05  3.3788e-05  1.9803e-05  0:01:48 1478
   523  5.8613e-05  1.7683e-04  6.8310e-05  5.3162e-03  5.6682e-05  3.3467e-05  1.9614e-05  0:01:26 1477
   524  5.9158e-05  1.7620e-04  6.7185e-05  5.9313e-03  5.7165e-05  3.3138e-05  1.9414e-05  0:01:09 1476
   525  6.0107e-05  1.7658e-04  6.7150e-05  6.6512e-03  5.8067e-05  3.2798e-05  1.9208e-05  0:00:55 1475
   526  6.1420e-05  1.7740e-04  6.7214e-05  7.4193e-03  5.9348e-05  3.2450e-05  1.8995e-05  0:00:44 1474
   527  6.3041e-05  1.7847e-04  6.7313e-05  8.1923e-03  6.0950e-05  3.2092e-05  1.8775e-05  0:00:35 1473
   528  6.4892e-05  1.7965e-04  6.7462e-05  8.9357e-03  6.2794e-05  3.1735e-05  1.8556e-05  0:05:23 1472

  iter  continuity  x-velocity  y-velocity  z-velocity      energy           k       omega     time/iter
   529  6.6889e-05  1.8089e-04  6.7657e-05  9.6391e-03  6.4791e-05  3.1373e-05  1.8346e-05  0:04:18 1471
   530  6.8950e-05  1.8215e-04  6.7890e-05  1.0295e-02  6.6857e-05  3.1012e-05  1.8138e-05  0:03:26 1470
   531  7.1002e-05  1.8342e-04  6.8156e-05  1.0889e-02  6.8917e-05  3.0651e-05  1.7942e-05  0:02:45 1469
   532  7.2979e-05  1.8470e-04  6.8460e-05  1.1410e-02  7.0904e-05  3.0291e-05  1.7760e-05  0:02:12 1468
   533  7.4828e-05  1.8598e-04  6.8800e-05  1.1847e-02  7.2764e-05  2.9942e-05  1.7581e-05  0:01:45 1467
   534  7.6504e-05  1.8723e-04  6.9171e-05  1.2195e-02  7.4450e-05  2.9620e-05  1.7412e-05  0:01:24 1466
   535  7.7970e-05  1.8844e-04  6.9569e-05  1.2450e-02  7.5926e-05  2.9315e-05  1.7251e-05  0:01:07 1465
   536  7.9197e-05  1.8959e-04  6.9984e-05  1.2608e-02  7.7160e-05  2.9037e-05  1.7096e-05  0:00:54 1464
   537  8.0162e-05  1.9065e-04  7.0411e-05  1.2680e-02  7.8132e-05  2.8770e-05  1.6947e-05  0:00:43 1463
   538  8.0851e-05  1.9161e-04  7.0844e-05  1.2646e-02  7.8826e-05  2.8508e-05  1.6817e-05  0:05:27 1462
   539  8.1254e-05  1.9245e-04  7.1275e-05  1.2505e-02  7.9232e-05  2.8246e-05  1.6704e-05  0:04:21 1461

  iter  continuity  x-velocity  y-velocity  z-velocity      energy           k       omega     time/iter
   540  8.1369e-05  1.9315e-04  7.1700e-05  1.2260e-02  7.9349e-05  2.7988e-05  1.6614e-05  0:03:29 1460
   541  8.1198e-05  1.9369e-04  7.2113e-05  1.1902e-02  7.9180e-05  2.7726e-05  1.6527e-05  0:02:47 1459
   542  8.0750e-05  1.9406e-04  7.2509e-05  1.1447e-02  7.8731e-05  2.7465e-05  1.6440e-05  0:02:13 1458
   543  8.0037e-05  1.9425e-04  7.2879e-05  1.0904e-02  7.8017e-05  2.7214e-05  1.6350e-05  0:01:47 1457
   544  7.9075e-05  1.9424e-04  7.3220e-05  1.0290e-02  7.7053e-05  2.6964e-05  1.6256e-05  0:01:25 1456
   545  7.7885e-05  1.9402e-04  7.3525e-05  9.6146e-03  7.5861e-05  2.6711e-05  1.6174e-05  0:01:08 1455
   546  7.6490e-05  1.9358e-04  7.3788e-05  8.8866e-03  7.4465e-05  2.6463e-05  1.6094e-05  0:00:55 1454
   547  7.4918e-05  1.9292e-04  7.4004e-05  8.1123e-03  7.2891e-05  2.6216e-05  1.6007e-05  0:00:44 1453
   548  7.3196e-05  1.9201e-04  7.4166e-05  7.3130e-03  7.1169e-05  2.5968e-05  1.5907e-05  0:05:25 1452
   549  7.1354e-05  1.9087e-04  7.4265e-05  6.5005e-03  6.9329e-05  2.5721e-05  1.5798e-05  0:04:20 1451
   550  6.9425e-05  1.8949e-04  7.4295e-05  5.6952e-03  6.7405e-05  2.5476e-05  1.5679e-05  0:03:28 1450

  iter  continuity  x-velocity  y-velocity  z-velocity      energy           k       omega     time/iter
   551  6.7443e-05  1.8787e-04  7.4248e-05  4.9226e-03  6.5430e-05  2.5236e-05  1.5550e-05  0:02:46 1449
   552  6.5440e-05  1.8602e-04  7.4120e-05  4.2044e-03  6.3437e-05  2.4995e-05  1.5415e-05  0:02:13 1448
   553  6.3412e-05  1.8377e-04  7.3857e-05  3.5798e-03  6.1424e-05  2.4762e-05  1.5269e-05  0:01:46 1447
   554  6.1428e-05  1.8137e-04  7.3503e-05  3.1042e-03  5.9462e-05  2.4535e-05  1.5114e-05  0:01:25 1446
   555  5.9524e-05  1.7880e-04  7.3046e-05  2.8229e-03  5.7585e-05  2.4298e-05  1.4957e-05  0:01:08 1445
   556  5.7720e-05  1.7612e-04  7.2667e-05  2.7779e-03  5.5816e-05  2.4040e-05  1.4793e-05  0:00:54 1444
   557  5.6042e-05  1.7315e-04  7.1892e-05  2.9515e-03  5.4179e-05  2.3785e-05  1.4623e-05  0:00:43 1443
   558  5.4464e-05  1.7007e-04  7.1047e-05  3.2778e-03  5.2649e-05  2.3534e-05  1.4448e-05  0:05:23 1442
   559  5.3014e-05  1.6686e-04  7.0125e-05  3.6833e-03  5.1254e-05  2.3292e-05  1.4275e-05  0:04:18 1441
   560  4.6509e-05  1.5146e-04  7.0457e-05  4.1117e-03  4.4798e-05  2.3067e-05  1.4095e-05  0:03:26 1440
   561  4.1439e-05  1.4170e-04  6.7289e-05  4.5340e-03  3.9847e-05  2.2845e-05  1.3914e-05  0:02:45 1439

  iter  continuity  x-velocity  y-velocity  z-velocity      energy           k       omega     time/iter
   562  3.8518e-05  1.3676e-04  6.1933e-05  4.9322e-03  3.7063e-05  2.2634e-05  1.3741e-05  0:02:12 1438
   563  3.6884e-05  1.3332e-04  5.7767e-05  5.2890e-03  3.5558e-05  2.2429e-05  1.3579e-05  0:01:46 1437
   564  3.5986e-05  1.3025e-04  5.4806e-05  5.6037e-03  3.4780e-05  2.2232e-05  1.3425e-05  0:01:24 1436
   565  3.5371e-05  1.2589e-04  5.2528e-05  5.8711e-03  3.4276e-05  2.2042e-05  1.3286e-05  0:01:07 1435
   566  3.5057e-05  1.2236e-04  5.0545e-05  6.0859e-03  3.4067e-05  2.1861e-05  1.3159e-05  0:05:41 1434
   567  3.4687e-05  1.2016e-04  4.9446e-05  6.2419e-03  3.3800e-05  2.1690e-05  1.3033e-05  0:04:32 1433
   568  3.4474e-05  1.1804e-04  4.8804e-05  6.3408e-03  3.3672e-05  2.1535e-05  1.2917e-05  0:03:38 1432
   569  3.4390e-05  1.1544e-04  4.7730e-05  6.3818e-03  3.3655e-05  2.1389e-05  1.2806e-05  0:02:54 1431
   570  3.4257e-05  1.1279e-04  4.6240e-05  6.3647e-03  3.3574e-05  2.1244e-05  1.2704e-05  0:02:19 1430
   571  3.4002e-05  1.1026e-04  4.4550e-05  6.2898e-03  3.3362e-05  2.1105e-05  1.2612e-05  0:01:51 1429
   572  3.3602e-05  1.0787e-04  4.2820e-05  6.1577e-03  3.2995e-05  2.0972e-05  1.2526e-05  0:01:29 1428

  iter  continuity  x-velocity  y-velocity  z-velocity      energy           k       omega     time/iter
   573  3.3055e-05  1.0562e-04  4.1136e-05  5.9735e-03  3.2474e-05  2.0843e-05  1.2452e-05  0:01:11 1427
   574  3.2365e-05  1.0350e-04  3.9530e-05  5.7428e-03  3.1802e-05  2.0715e-05  1.2372e-05  0:00:57 1426
   575  3.1542e-05  1.0149e-04  3.8012e-05  5.4665e-03  3.0988e-05  2.0581e-05  1.2293e-05  0:00:45 1425
   576  3.0596e-05  9.9595e-05  3.6580e-05  5.1512e-03  3.0045e-05  2.0450e-05  1.2219e-05  0:05:21 1424
   577  2.9543e-05  9.7807e-05  3.5230e-05  4.8083e-03  2.8988e-05  2.0318e-05  1.2157e-05  0:04:17 1423
   578  2.8403e-05  9.6121e-05  3.3958e-05  4.4423e-03  2.7835e-05  2.0183e-05  1.2089e-05  0:03:25 1422
   579  2.7198e-05  9.4534e-05  3.2757e-05  4.0577e-03  2.6611e-05  2.0047e-05  1.2026e-05  0:02:44 1421
   580  2.5956e-05  9.3045e-05  3.1625e-05  3.6675e-03  2.5342e-05  1.9913e-05  1.1961e-05  0:02:11 1420
   581  2.4708e-05  9.1650e-05  3.0555e-05  3.2773e-03  2.4062e-05  1.9777e-05  1.1891e-05  0:01:45 1419
   582  2.3491e-05  9.0347e-05  2.9544e-05  2.8967e-03  2.2805e-05  1.9638e-05  1.1815e-05  0:01:24 1418
   583  2.2344e-05  8.9132e-05  2.8586e-05  2.5411e-03  2.1613e-05  1.9500e-05  1.1732e-05  0:01:07 1417

  iter  continuity  x-velocity  y-velocity  z-velocity      energy           k       omega     time/iter
   584  2.1309e-05  8.8002e-05  2.7679e-05  2.2313e-03  2.0529e-05  1.9358e-05  1.1644e-05  0:00:54 1416
   585  2.0425e-05  8.6953e-05  2.6817e-05  1.9957e-03  1.9596e-05  1.9216e-05  1.1552e-05  0:00:43 1415
   586  1.9732e-05  8.5981e-05  2.5998e-05  1.8542e-03  1.8856e-05  1.9074e-05  1.1454e-05  0:05:17 1414
   587  1.9257e-05  8.5080e-05  2.5217e-05  1.8202e-03  1.8341e-05  1.8938e-05  1.1354e-05  0:04:13 1413
   588  1.9017e-05  8.4246e-05  2.4474e-05  1.8876e-03  1.8071e-05  1.8801e-05  1.1251e-05  0:03:23 1412
   589  1.9010e-05  8.3472e-05  2.3764e-05  2.0397e-03  1.8046e-05  1.8660e-05  1.1144e-05  0:02:42 1411
   590  1.9218e-05  8.2753e-05  2.3087e-05  2.2407e-03  1.8249e-05  1.8514e-05  1.1037e-05  0:02:09 1410
   591  1.9610e-05  8.2082e-05  2.2440e-05  2.4602e-03  1.8647e-05  1.8363e-05  1.0930e-05  0:01:44 1409
   592  2.0145e-05  8.1453e-05  2.1823e-05  2.6834e-03  1.9196e-05  1.8208e-05  1.0834e-05  0:01:23 1408
   593  2.0777e-05  8.0861e-05  2.1234e-05  2.8948e-03  1.9849e-05  1.8055e-05  1.0738e-05  0:01:06 1407
   594  2.1462e-05  8.0299e-05  2.0674e-05  3.0845e-03  2.0558e-05  1.7901e-05  1.0648e-05  0:00:53 1406

  iter  continuity  x-velocity  y-velocity  z-velocity      energy           k       omega     time/iter
   595  2.2159e-05  7.9762e-05  2.0140e-05  3.2455e-03  2.1282e-05  1.7749e-05  1.0566e-05  0:00:42 1405
   596  2.2833e-05  7.9245e-05  1.9633e-05  3.3729e-03  2.1982e-05  1.7597e-05  1.0486e-05  0:05:15 1404
   597  2.3453e-05  7.8744e-05  1.9152e-05  3.4660e-03  2.2627e-05  1.7454e-05  1.0408e-05  0:04:12 1403
   598  2.3994e-05  7.8254e-05  1.8696e-05  3.5227e-03  2.3193e-05  1.7321e-05  1.0332e-05  0:03:21 1402
   599  2.4438e-05  7.7772e-05  1.8265e-05  3.5419e-03  2.3659e-05  1.7202e-05  1.0259e-05  0:02:41 1401
   600  2.4768e-05  7.7296e-05  1.7858e-05  3.5250e-03  2.4010e-05  1.7083e-05  1.0194e-05  0:02:08 1400
   601  2.4975e-05  7.6824e-05  1.7474e-05  3.4697e-03  2.4236e-05  1.6964e-05  1.0147e-05  0:01:43 1399
   602  2.5050e-05  7.6354e-05  1.7112e-05  3.3779e-03  2.4330e-05  1.6842e-05  1.0102e-05  0:01:22 1398
   603  2.4991e-05  7.5885e-05  1.6772e-05  3.2516e-03  2.4286e-05  1.6719e-05  1.0063e-05  0:01:06 1397
   604  2.4796e-05  7.5415e-05  1.6452e-05  3.0894e-03  2.4106e-05  1.6598e-05  1.0023e-05  0:00:52 1396
   605  2.4468e-05  7.4946e-05  1.6151e-05  2.8962e-03  2.3791e-05  1.6477e-05  9.9850e-06  0:05:21 1395

  iter  continuity  x-velocity  y-velocity  z-velocity      energy           k       omega     time/iter
   606  2.4011e-05  7.4478e-05  1.5869e-05  2.6786e-03  2.3345e-05  1.6358e-05  9.9445e-06  0:04:17 1394
   607  2.3430e-05  7.4010e-05  1.5604e-05  2.4435e-03  2.2775e-05  1.6243e-05  9.9012e-06  0:03:25 1393
   608  2.2737e-05  7.3543e-05  1.5356e-05  2.1964e-03  2.2090e-05  1.6127e-05  9.8577e-06  0:02:44 1392
   609  2.1940e-05  7.3078e-05  1.5124e-05  1.9476e-03  2.1300e-05  1.6011e-05  9.8085e-06  0:02:11 1391
   610  2.1052e-05  7.2616e-05  1.4907e-05  1.7164e-03  2.0419e-05  1.5896e-05  9.7560e-06  0:01:45 1390
   611  2.0089e-05  7.2157e-05  1.4705e-05  1.5223e-03  1.9460e-05  1.5779e-05  9.7003e-06  0:01:24 1389
   612  1.9068e-05  7.1701e-05  1.4517e-05  1.3951e-03  1.8441e-05  1.5661e-05  9.6428e-06  0:01:07 1388
   613  1.8005e-05  7.1250e-05  1.4343e-05  1.3729e-03  1.7380e-05  1.5541e-05  9.5808e-06  0:00:54 1387
   614  1.6924e-05  7.0803e-05  1.4182e-05  1.4662e-03  1.6299e-05  1.5419e-05  9.5139e-06  0:00:43 1386
   615  1.5847e-05  7.0361e-05  1.4036e-05  1.6586e-03  1.5222e-05  1.5295e-05  9.4424e-06  0:05:11 1385
   616  1.4800e-05  6.9922e-05  1.3903e-05  1.9167e-03  1.4174e-05  1.5168e-05  9.3673e-06  0:04:09 1384

  iter  continuity  x-velocity  y-velocity  z-velocity      energy           k       omega     time/iter
   617  1.3811e-05  6.9487e-05  1.3783e-05  2.2133e-03  1.3185e-05  1.5044e-05  9.2908e-06  0:03:19 1383
   618  1.2911e-05  6.9054e-05  1.3676e-05  2.5296e-03  1.2287e-05  1.4921e-05  9.2103e-06  0:02:39 1382
   619  1.2131e-05  6.8624e-05  1.3582e-05  2.8521e-03  1.1513e-05  1.4799e-05  9.1284e-06  0:02:07 1381
   620  1.1498e-05  6.8195e-05  1.3500e-05  3.1737e-03  1.0892e-05  1.4677e-05  9.0442e-06  0:01:42 1380
   621  1.1036e-05  6.7765e-05  1.3431e-05  3.4910e-03  1.0450e-05  1.4558e-05  8.9583e-06  0:01:21 1379
   622  1.0758e-05  6.7334e-05  1.3372e-05  3.7974e-03  1.0199e-05  1.4443e-05  8.8744e-06  0:05:41 1378
   623  1.0661e-05  6.6901e-05  1.3324e-05  4.0887e-03  1.0137e-05  1.4331e-05  8.7883e-06  0:04:32 1377
   624  1.0728e-05  6.6463e-05  1.3286e-05  4.3608e-03  1.0244e-05  1.4218e-05  8.7015e-06  0:03:38 1376
[...]
  1838  5.9571e-09  3.0174e-08  6.9158e-09  2.2765e-05  5.6375e-09  7.1185e-09  4.0531e-09  0:00:24  162
  1839  5.9184e-09  2.9981e-08  6.8709e-09  2.2620e-05  5.6009e-09  7.0726e-09  4.0271e-09  0:00:19  161
  1840  5.8800e-09  2.9788e-08  6.8264e-09  2.2476e-05  5.5646e-09  7.0271e-09  4.0012e-09  0:00:15  160
  1841  5.8419e-09  2.9597e-08  6.7821e-09  2.2332e-05  5.5284e-09  6.9818e-09  3.9755e-09  0:00:12  159
  1842  5.8040e-09  2.9407e-08  6.7382e-09  2.2190e-05  5.4926e-09  6.9368e-09  3.9500e-09  0:00:10  158
  1843  5.7663e-09  2.9218e-08  6.6945e-09  2.2049e-05  5.4569e-09  6.8922e-09  3.9246e-09  0:00:08  157
  1844  5.7289e-09  2.9031e-08  6.6511e-09  2.1909e-05  5.4215e-09  6.8478e-09  3.8995e-09  0:00:06  156
  1845  5.6918e-09  2.8845e-08  6.6080e-09  2.1769e-05  5.3864e-09  6.8037e-09  3.8744e-09  0:00:36  155
  1846  5.6549e-09  2.8660e-08  6.5652e-09  2.1630e-05  5.3514e-09  6.7599e-09  3.8496e-09  0:00:28  154
  1847  5.6182e-09  2.8476e-08  6.5226e-09  2.1493e-05  5.3167e-09  6.7164e-09  3.8249e-09  0:00:23  153
  1848  5.5818e-09  2.8293e-08  6.4803e-09  2.1356e-05  5.2823e-09  6.6731e-09  3.8003e-09  0:00:18  152

  iter  continuity  x-velocity  y-velocity  z-velocity      energy           k       omega     time/iter
  1849  5.5456e-09  2.8111e-08  6.4383e-09  2.1220e-05  5.2480e-09  6.6302e-09  3.7759e-09  0:00:14  151
  1850  5.5097e-09  2.7931e-08  6.3966e-09  2.1085e-05  5.2140e-09  6.5875e-09  3.7517e-09  0:00:11  150
  1851  5.4739e-09  2.7752e-08  6.3552e-09  2.0950e-05  5.1802e-09  6.5451e-09  3.7276e-09  0:00:09  149
  1852  5.4385e-09  2.7574e-08  6.3140e-09  2.0817e-05  5.1466e-09  6.5030e-09  3.7037e-09  0:00:07  148
  1853  5.4032e-09  2.7397e-08  6.2731e-09  2.0684e-05  5.1133e-09  6.4611e-09  3.6800e-09  0:00:35  147
  1854  5.3682e-09  2.7221e-08  6.2324e-09  2.0552e-05  5.0801e-09  6.4195e-09  3.6563e-09  0:00:28  146
  1855  5.3335e-09  2.7047e-08  6.1920e-09  2.0421e-05  5.0472e-09  6.3782e-09  3.6329e-09  0:00:22  145
  1856  5.2989e-09  2.6873e-08  6.1519e-09  2.0291e-05  5.0145e-09  6.3372e-09  3.6096e-09  0:00:18  144
  1857  5.2646e-09  2.6701e-08  6.1121e-09  2.0162e-05  4.9821e-09  6.2964e-09  3.5864e-09  0:00:14  143
  1858  5.2305e-09  2.6530e-08  6.0725e-09  2.0034e-05  4.9498e-09  6.2559e-09  3.5634e-09  0:00:11  142
  1859  5.1967e-09  2.6360e-08  6.0331e-09  1.9906e-05  4.9177e-09  6.2157e-09  3.5406e-09  0:00:09  141

  iter  continuity  x-velocity  y-velocity  z-velocity      energy           k       omega     time/iter
  1860  5.1630e-09  2.6191e-08  5.9940e-09  1.9779e-05  4.8859e-09  6.1757e-09  3.5179e-09  0:00:07  140
  1861  5.1296e-09  2.6023e-08  5.9552e-09  1.9653e-05  4.8543e-09  6.1360e-09  3.4953e-09  0:00:33  139
  1862  5.0964e-09  2.5856e-08  5.9166e-09  1.9528e-05  4.8229e-09  6.0965e-09  3.4729e-09  0:00:27  138
  1863  5.0634e-09  2.5690e-08  5.8783e-09  1.9403e-05  4.7916e-09  6.0573e-09  3.4506e-09  0:00:21  137
  1864  5.0307e-09  2.5525e-08  5.8403e-09  1.9279e-05  4.7606e-09  6.0184e-09  3.4285e-09  0:00:17  136
  1865  4.9981e-09  2.5362e-08  5.8024e-09  1.9157e-05  4.7298e-09  5.9797e-09  3.4065e-09  0:00:13  135
  1866  4.9658e-09  2.5199e-08  5.7649e-09  1.9034e-05  4.6992e-09  5.9412e-09  3.3847e-09  0:00:11  134
  1867  4.9337e-09  2.5038e-08  5.7275e-09  1.8913e-05  4.6688e-09  5.9030e-09  3.3630e-09  0:00:08  133
  1868  4.9018e-09  2.4877e-08  5.6905e-09  1.8792e-05  4.6386e-09  5.8651e-09  3.3414e-09  0:00:07  132
  1869  4.8701e-09  2.4718e-08  5.6536e-09  1.8673e-05  4.6086e-09  5.8274e-09  3.3200e-09  0:00:05  131
  1870  4.8386e-09  2.4559e-08  5.6170e-09  1.8554e-05  4.5788e-09  5.7900e-09  3.2987e-09  0:00:30  130

  iter  continuity  x-velocity  y-velocity  z-velocity      energy           k       omega     time/iter
  1871  4.8073e-09  2.4402e-08  5.5807e-09  1.8435e-05  4.5492e-09  5.7527e-09  3.2775e-09  0:00:24  129
  1872  4.7762e-09  2.4245e-08  5.5446e-09  1.8318e-05  4.5198e-09  5.7158e-09  3.2565e-09  0:00:19  128
  1873  4.7453e-09  2.4090e-08  5.5087e-09  1.8201e-05  4.4906e-09  5.6791e-09  3.2357e-09  0:00:15  127
  1874  4.7147e-09  2.3936e-08  5.4730e-09  1.8085e-05  4.4615e-09  5.6426e-09  3.2149e-09  0:00:12  126
  1875  4.6842e-09  2.3782e-08  5.4376e-09  1.7969e-05  4.4327e-09  5.6063e-09  3.1943e-09  0:00:10  125
  1876  4.6539e-09  2.3630e-08  5.4024e-09  1.7855e-05  4.4040e-09  5.5703e-09  3.1738e-09  0:00:08  124
  1877  4.6238e-09  2.3479e-08  5.3675e-09  1.7741e-05  4.3756e-09  5.5345e-09  3.1535e-09  0:00:06  123
  1878  4.5940e-09  2.3328e-08  5.3328e-09  1.7628e-05  4.3473e-09  5.4990e-09  3.1333e-09  0:00:05  122
  1879  4.5643e-09  2.3179e-08  5.2983e-09  1.7515e-05  4.3192e-09  5.4637e-09  3.1132e-09  0:00:28  121
  1880  4.5348e-09  2.3030e-08  5.2640e-09  1.7403e-05  4.2913e-09  5.4286e-09  3.0933e-09  0:00:22  120
  1881  4.5055e-09  2.2883e-08  5.2300e-09  1.7292e-05  4.2636e-09  5.3937e-09  3.0734e-09  0:00:18  119

  iter  continuity  x-velocity  y-velocity  z-velocity      energy           k       omega     time/iter
  1882  4.4764e-09  2.2736e-08  5.1962e-09  1.7182e-05  4.2360e-09  5.3591e-09  3.0537e-09  0:00:14  118
  1883  4.4475e-09  2.2590e-08  5.1626e-09  1.7072e-05  4.2087e-09  5.3247e-09  3.0342e-09  0:00:11  117
  1884  4.4187e-09  2.2446e-08  5.1293e-09  1.6963e-05  4.1815e-09  5.2905e-09  3.0147e-09  0:00:09  116
  1885  4.3902e-09  2.2302e-08  5.0961e-09  1.6855e-05  4.1545e-09  5.2566e-09  2.9954e-09  0:00:07  115
  1886  4.3619e-09  2.2159e-08  5.0632e-09  1.6748e-05  4.1276e-09  5.2228e-09  2.9762e-09  0:00:06  114
  1887  4.3337e-09  2.2017e-08  5.0305e-09  1.6641e-05  4.1010e-09  5.1893e-09  2.9572e-09  0:00:04  113
  1888  4.3057e-09  2.1876e-08  4.9980e-09  1.6534e-05  4.0745e-09  5.1560e-09  2.9382e-09  0:00:26  112
  1889  4.2779e-09  2.1736e-08  4.9657e-09  1.6429e-05  4.0482e-09  5.1229e-09  2.9194e-09  0:00:21  111
  1890  4.2503e-09  2.1597e-08  4.9337e-09  1.6324e-05  4.0220e-09  5.0901e-09  2.9007e-09  0:00:16  110
  1891  4.2229e-09  2.1459e-08  4.9018e-09  1.6220e-05  3.9961e-09  5.0574e-09  2.8821e-09  0:00:13  109
  1892  4.1956e-09  2.1321e-08  4.8702e-09  1.6116e-05  3.9703e-09  5.0250e-09  2.8637e-09  0:00:10  108

  iter  continuity  x-velocity  y-velocity  z-velocity      energy           k       omega     time/iter
  1893  4.1685e-09  2.1185e-08  4.8387e-09  1.6013e-05  3.9447e-09  4.9927e-09  2.8453e-09  0:00:08  107
  1894  4.1416e-09  2.1049e-08  4.8075e-09  1.5911e-05  3.9192e-09  4.9607e-09  2.8271e-09  0:00:06  106
  1895  4.1149e-09  2.0914e-08  4.7765e-09  1.5809e-05  3.8939e-09  4.9289e-09  2.8090e-09  0:00:05  105
  1896  4.0884e-09  2.0781e-08  4.7457e-09  1.5708e-05  3.8688e-09  4.8973e-09  2.7910e-09  0:00:04  104
  1897  4.0620e-09  2.0648e-08  4.7151e-09  1.5608e-05  3.8438e-09  4.8659e-09  2.7732e-09  0:00:24  103
  1898  4.0358e-09  2.0515e-08  4.6847e-09  1.5508e-05  3.8191e-09  4.8347e-09  2.7554e-09  0:00:19  102
  1899  4.0098e-09  2.0384e-08  4.6544e-09  1.5409e-05  3.7944e-09  4.8037e-09  2.7378e-09  0:00:15  101
  1900  3.9840e-09  2.0254e-08  4.6244e-09  1.5311e-05  3.7700e-09  4.7729e-09  2.7202e-09  0:00:12  100
  1901  3.9583e-09  2.0124e-08  4.5946e-09  1.5213e-05  3.7457e-09  4.7423e-09  2.7028e-09  0:00:09   99
  1902  3.9328e-09  1.9995e-08  4.5650e-09  1.5115e-05  3.7215e-09  4.7119e-09  2.6855e-09  0:00:07   98
  1903  3.9074e-09  1.9867e-08  4.5356e-09  1.5019e-05  3.6975e-09  4.6817e-09  2.6683e-09  0:00:06   97

  iter  continuity  x-velocity  y-velocity  z-velocity      energy           k       omega     time/iter
  1904  3.8822e-09  1.9740e-08  4.5064e-09  1.4923e-05  3.6737e-09  4.6517e-09  2.6512e-09  0:00:05   96
  1905  3.8572e-09  1.9614e-08  4.4773e-09  1.4827e-05  3.6501e-09  4.6219e-09  2.6343e-09  0:00:23   95
  1906  3.8324e-09  1.9488e-08  4.4485e-09  1.4733e-05  3.6265e-09  4.5923e-09  2.6174e-09  0:00:18   94
  1907  3.8077e-09  1.9364e-08  4.4198e-09  1.4638e-05  3.6032e-09  4.5629e-09  2.6007e-09  0:00:14   93
  1908  3.7832e-09  1.9240e-08  4.3914e-09  1.4545e-05  3.5800e-09  4.5336e-09  2.5840e-09  0:00:11   92
  1909  3.7589e-09  1.9116e-08  4.3631e-09  1.4452e-05  3.5569e-09  4.5046e-09  2.5675e-09  0:00:09   91
  1910  3.7347e-09  1.8994e-08  4.3350e-09  1.4359e-05  3.5341e-09  4.4757e-09  2.5510e-09  0:00:07   90
  1911  3.7106e-09  1.8873e-08  4.3071e-09  1.4268e-05  3.5113e-09  4.4471e-09  2.5347e-09  0:00:06   89
  1912  3.6868e-09  1.8752e-08  4.2794e-09  1.4176e-05  3.4887e-09  4.4186e-09  2.5185e-09  0:00:04   88
  1913  3.6631e-09  1.8632e-08  4.2518e-09  1.4086e-05  3.4663e-09  4.3903e-09  2.5024e-09  0:00:03   87
  1914  3.6395e-09  1.8513e-08  4.2245e-09  1.3996e-05  3.4440e-09  4.3622e-09  2.4864e-09  0:00:20   86

  iter  continuity  x-velocity  y-velocity  z-velocity      energy           k       omega     time/iter
  1915  3.6161e-09  1.8394e-08  4.1973e-09  1.3906e-05  3.4218e-09  4.3343e-09  2.4705e-09  0:00:16   85
  1916  3.5929e-09  1.8277e-08  4.1703e-09  1.3817e-05  3.3998e-09  4.3065e-09  2.4547e-09  0:00:12   84
  1917  3.5698e-09  1.8160e-08  4.1435e-09  1.3729e-05  3.3780e-09  4.2790e-09  2.4389e-09  0:00:10   83
  1918  3.5468e-09  1.8044e-08  4.1168e-09  1.3641e-05  3.3563e-09  4.2516e-09  2.4233e-09  0:00:08   82
  1919  3.5240e-09  1.7928e-08  4.0903e-09  1.3554e-05  3.3347e-09  4.2243e-09  2.4078e-09  0:00:06   81
  1920  3.5014e-09  1.7813e-08  4.0640e-09  1.3467e-05  3.3133e-09  4.1973e-09  2.3924e-09  0:00:05   80
  1921  3.4789e-09  1.7700e-08  4.0379e-09  1.3381e-05  3.2920e-09  4.1705e-09  2.3771e-09  0:00:04   79
  1922  3.4566e-09  1.7586e-08  4.0120e-09  1.3295e-05  3.2709e-09  4.1438e-09  2.3619e-09  0:00:03   78
  1923  3.4344e-09  1.7474e-08  3.9862e-09  1.3210e-05  3.2499e-09  4.1173e-09  2.3468e-09  0:00:18   77
  1924  3.4123e-09  1.7362e-08  3.9606e-09  1.3125e-05  3.2290e-09  4.0909e-09  2.3318e-09  0:00:14   76
  1925  3.3904e-09  1.7251e-08  3.9351e-09  1.3041e-05  3.2083e-09  4.0647e-09  2.3169e-09  0:00:11   75

  iter  continuity  x-velocity  y-velocity  z-velocity      energy           k       omega     time/iter
  1926  3.3687e-09  1.7141e-08  3.9098e-09  1.2958e-05  3.1877e-09  4.0387e-09  2.3021e-09  0:00:09   74
  1927  3.3471e-09  1.7031e-08  3.8847e-09  1.2875e-05  3.1673e-09  4.0129e-09  2.2874e-09  0:00:07   73
  1928  3.3256e-09  1.6922e-08  3.8598e-09  1.2792e-05  3.1469e-09  3.9872e-09  2.2727e-09  0:00:05   72
  1929  3.3043e-09  1.6814e-08  3.8350e-09  1.2711e-05  3.1267e-09  3.9617e-09  2.2582e-09  0:00:04   71
  1930  3.2831e-09  1.6707e-08  3.8103e-09  1.2629e-05  3.1067e-09  3.9364e-09  2.2437e-09  0:00:03   70
  1931  3.2620e-09  1.6600e-08  3.7859e-09  1.2548e-05  3.0868e-09  3.9112e-09  2.2294e-09  0:00:16   69
  1932  3.2411e-09  1.6494e-08  3.7616e-09  1.2468e-05  3.0670e-09  3.8862e-09  2.2151e-09  0:00:13   68
  1933  3.2203e-09  1.6388e-08  3.7374e-09  1.2388e-05  3.0473e-09  3.8614e-09  2.2010e-09  0:00:10   67
  1934  3.1997e-09  1.6283e-08  3.7134e-09  1.2309e-05  3.0278e-09  3.8367e-09  2.1869e-09  0:00:08   66
  1935  3.1792e-09  1.6179e-08  3.6896e-09  1.2230e-05  3.0084e-09  3.8122e-09  2.1729e-09  0:00:06   65
  1936  3.1588e-09  1.6076e-08  3.6659e-09  1.2151e-05  2.9891e-09  3.7878e-09  2.1590e-09  0:00:05   64

  iter  continuity  x-velocity  y-velocity  z-velocity      energy           k       omega     time/iter
  1937  3.1386e-09  1.5973e-08  3.6424e-09  1.2074e-05  2.9700e-09  3.7636e-09  2.1452e-09  0:00:04   63
  1938  3.1185e-09  1.5871e-08  3.6191e-09  1.1996e-05  2.9509e-09  3.7395e-09  2.1315e-09  0:00:03   62
  1939  3.0985e-09  1.5770e-08  3.5959e-09  1.1919e-05  2.9320e-09  3.7156e-09  2.1179e-09  0:00:02   61
  1940  3.0786e-09  1.5669e-08  3.5728e-09  1.1843e-05  2.9132e-09  3.6919e-09  2.1043e-09  0:00:14   60
  1941  3.0589e-09  1.5569e-08  3.5499e-09  1.1767e-05  2.8946e-09  3.6683e-09  2.0909e-09  0:00:11   59
  1942  3.0393e-09  1.5469e-08  3.5271e-09  1.1692e-05  2.8760e-09  3.6448e-09  2.0775e-09  0:00:09   58
  1943  3.0199e-09  1.5370e-08  3.5045e-09  1.1617e-05  2.8576e-09  3.6215e-09  2.0642e-09  0:00:07   57
  1944  3.0005e-09  1.5272e-08  3.4821e-09  1.1542e-05  2.8393e-09  3.5984e-09  2.0510e-09  0:00:05   56
  1945  2.9813e-09  1.5174e-08  3.4598e-09  1.1468e-05  2.8212e-09  3.5754e-09  2.0379e-09  0:00:04   55
  1946  2.9623e-09  1.5077e-08  3.4376e-09  1.1395e-05  2.8031e-09  3.5526e-09  2.0249e-09  0:00:03   54
  1947  2.9433e-09  1.4981e-08  3.4156e-09  1.1322e-05  2.7852e-09  3.5299e-09  2.0120e-09  0:00:03   53

  iter  continuity  x-velocity  y-velocity  z-velocity      energy           k       omega     time/iter
  1948  2.9245e-09  1.4885e-08  3.3937e-09  1.1249e-05  2.7673e-09  3.5073e-09  1.9991e-09  0:00:12   52
  1949  2.9057e-09  1.4790e-08  3.3720e-09  1.1177e-05  2.7496e-09  3.4849e-09  1.9863e-09  0:00:10   51
  1950  2.8872e-09  1.4696e-08  3.3504e-09  1.1105e-05  2.7320e-09  3.4627e-09  1.9736e-09  0:00:08   50
  1951  2.8687e-09  1.4602e-08  3.3289e-09  1.1034e-05  2.7146e-09  3.4406e-09  1.9610e-09  0:00:06   49
  1952  2.8503e-09  1.4508e-08  3.3076e-09  1.0963e-05  2.6972e-09  3.4186e-09  1.9485e-09  0:00:05   48
  1953  2.8321e-09  1.4416e-08  3.2865e-09  1.0893e-05  2.6799e-09  3.3967e-09  1.9360e-09  0:00:04   47
  1954  2.8140e-09  1.4324e-08  3.2654e-09  1.0823e-05  2.6628e-09  3.3751e-09  1.9237e-09  0:00:03   46
  1955  2.7960e-09  1.4232e-08  3.2445e-09  1.0754e-05  2.6458e-09  3.3535e-09  1.9114e-09  0:00:02   45
  1956  2.7781e-09  1.4141e-08  3.2238e-09  1.0685e-05  2.6289e-09  3.3321e-09  1.8991e-09  0:00:02   44
  1957  2.7604e-09  1.4051e-08  3.2032e-09  1.0616e-05  2.6121e-09  3.3108e-09  1.8870e-09  0:00:10   43
  1958  2.7427e-09  1.3961e-08  3.1827e-09  1.0548e-05  2.5954e-09  3.2897e-09  1.8750e-09  0:00:08   42

  iter  continuity  x-velocity  y-velocity  z-velocity      energy           k       omega     time/iter
  1959  2.7252e-09  1.3872e-08  3.1623e-09  1.0481e-05  2.5788e-09  3.2687e-09  1.8630e-09  0:00:06   41
  1960  2.7078e-09  1.3783e-08  3.1421e-09  1.0413e-05  2.5623e-09  3.2478e-09  1.8511e-09  0:00:05   40
  1961  2.6905e-09  1.3695e-08  3.1220e-09  1.0347e-05  2.5459e-09  3.2271e-09  1.8392e-09  0:00:04   39
  1962  2.6733e-09  1.3608e-08  3.1021e-09  1.0280e-05  2.5296e-09  3.2065e-09  1.8275e-09  0:00:03   38
  1963  2.6562e-09  1.3521e-08  3.0822e-09  1.0214e-05  2.5135e-09  3.1860e-09  1.8158e-09  0:00:02   37
  1964  2.6392e-09  1.3434e-08  3.0625e-09  1.0149e-05  2.4974e-09  3.1657e-09  1.8042e-09  0:00:02   36
  1965  2.6224e-09  1.3348e-08  3.0430e-09  1.0084e-05  2.4815e-09  3.1455e-09  1.7927e-09  0:00:01   35
  1966  2.6056e-09  1.3263e-08  3.0235e-09  1.0019e-05  2.4656e-09  3.1254e-09  1.7812e-09  0:00:08   34
  1967  2.5890e-09  1.3178e-08  3.0042e-09  9.9547e-06  2.4499e-09  3.1055e-09  1.7698e-09  0:00:06   33
  1968  2.5725e-09  1.3094e-08  2.9850e-09  9.8908e-06  2.4342e-09  3.0856e-09  1.7585e-09  0:00:05   32
  1969  2.5560e-09  1.3011e-08  2.9660e-09  9.8273e-06  2.4187e-09  3.0659e-09  1.7473e-09  0:00:04   31

  iter  continuity  x-velocity  y-velocity  z-velocity      energy           k       omega     time/iter
  1970  2.5397e-09  1.2927e-08  2.9470e-09  9.7642e-06  2.4033e-09  3.0464e-09  1.7361e-09  0:00:03   30
  1971  2.5235e-09  1.2845e-08  2.9282e-09  9.7016e-06  2.3879e-09  3.0269e-09  1.7250e-09  0:00:02   29
  1972  2.5074e-09  1.2763e-08  2.9095e-09  9.6393e-06  2.3727e-09  3.0076e-09  1.7140e-09  0:00:07   28
  1973  2.4914e-09  1.2681e-08  2.8909e-09  9.5774e-06  2.3576e-09  2.9884e-09  1.7031e-09  0:00:06   27
  1974  2.4755e-09  1.2600e-08  2.8725e-09  9.5160e-06  2.3425e-09  2.9694e-09  1.6922e-09  0:00:04   26
  1975  2.4597e-09  1.2520e-08  2.8541e-09  9.4549e-06  2.3276e-09  2.9504e-09  1.6814e-09  0:00:03   25
  1976  2.4440e-09  1.2440e-08  2.8359e-09  9.3942e-06  2.3127e-09  2.9316e-09  1.6706e-09  0:00:03   24
  1977  2.4284e-09  1.2360e-08  2.8178e-09  9.3339e-06  2.2980e-09  2.9129e-09  1.6600e-09  0:00:02   23
  1978  2.4130e-09  1.2281e-08  2.7999e-09  9.2740e-06  2.2833e-09  2.8943e-09  1.6494e-09  0:00:02   22
  1979  2.3976e-09  1.2203e-08  2.7820e-09  9.2144e-06  2.2688e-09  2.8759e-09  1.6388e-09  0:00:01   21
  1980  2.3823e-09  1.2125e-08  2.7642e-09  9.1553e-06  2.2543e-09  2.8575e-09  1.6284e-09  0:00:01   20

  iter  continuity  x-velocity  y-velocity  z-velocity      energy           k       omega     time/iter
  1981  2.3671e-09  1.2047e-08  2.7466e-09  9.0965e-06  2.2399e-09  2.8393e-09  1.6179e-09  0:00:04   19
  1982  2.3520e-09  1.1970e-08  2.7291e-09  9.0381e-06  2.2257e-09  2.8212e-09  1.6076e-09  0:00:03   18
  1983  2.3370e-09  1.1894e-08  2.7117e-09  8.9801e-06  2.2115e-09  2.8032e-09  1.5973e-09  0:00:03   17
  1984  2.3221e-09  1.1818e-08  2.6944e-09  8.9224e-06  2.1974e-09  2.7853e-09  1.5871e-09  0:00:02   16
  1985  2.3073e-09  1.1743e-08  2.6772e-09  8.8651e-06  2.1834e-09  2.7675e-09  1.5770e-09  0:00:01   15
  1986  2.2926e-09  1.1668e-08  2.6601e-09  8.8082e-06  2.1695e-09  2.7499e-09  1.5669e-09  0:00:01   14
  1987  2.2780e-09  1.1593e-08  2.6432e-09  8.7516e-06  2.1557e-09  2.7323e-09  1.5569e-09  0:00:01   13
  1988  2.2635e-09  1.1519e-08  2.6263e-09  8.6955e-06  2.1419e-09  2.7149e-09  1.5470e-09  0:00:01   12
  1989  2.2491e-09  1.1445e-08  2.6096e-09  8.6396e-06  2.1283e-09  2.6976e-09  1.5371e-09  0:00:03   11
  1990  2.2348e-09  1.1372e-08  2.5930e-09  8.5841e-06  2.1147e-09  2.6804e-09  1.5273e-09  0:00:02   10
  1991  2.2206e-09  1.1300e-08  2.5764e-09  8.5290e-06  2.1013e-09  2.6633e-09  1.5175e-09  0:00:01    9

  iter  continuity  x-velocity  y-velocity  z-velocity      energy           k       omega     time/iter
  1992  2.2064e-09  1.1227e-08  2.5600e-09  8.4742e-06  2.0879e-09  2.6463e-09  1.5078e-09  0:00:01    8
  1993  2.1924e-09  1.1156e-08  2.5437e-09  8.4198e-06  2.0746e-09  2.6294e-09  1.4982e-09  0:00:01    7
  1994  2.1784e-09  1.1084e-08  2.5275e-09  8.3657e-06  2.0614e-09  2.6127e-09  1.4886e-09  0:00:00    6
  1995  2.1645e-09  1.1014e-08  2.5114e-09  8.3120e-06  2.0483e-09  2.5960e-09  1.4791e-09  0:00:00    5
  1996  2.1508e-09  1.0943e-08  2.4954e-09  8.2586e-06  2.0352e-09  2.5794e-09  1.4697e-09  0:00:00    4
  1997  2.1371e-09  1.0873e-08  2.4795e-09  8.2056e-06  2.0223e-09  2.5630e-09  1.4603e-09  0:00:00    3
  1998  2.1235e-09  1.0804e-08  2.4637e-09  8.1529e-06  2.0094e-09  2.5467e-09  1.4509e-09  0:00:00    2
  1999  2.1099e-09  1.0735e-08  2.4480e-09  8.1005e-06  1.9966e-09  2.5304e-09  1.4417e-09  0:00:00    1
  2000  2.0965e-09  1.0666e-08  2.4324e-09  8.0485e-06  1.9839e-09  2.5143e-09  1.4325e-09  0:00:00    0

> 
adjoint/                parallel/               server/
define/                 parametric-study/       solve/
display/                plot/                   surface/
exit                    preferences/            turbo-workflow/
file/                   print-license-usage     views/
mesh/                   report/

> /file/write-case-data project1
Fast-loading "C:\PROGRA~1\ANSYSI~1\v231\fluent\fluent23.1.0\\addons\afd\lib\hdfio.bin"
Done.

Writing to Engs-30669:"C:\Users\kebl7595\Desktop\CFD\Runs\Viscous\Mach 0.3\3 degrees\project1.cas.h5" in NODE0 mode and compression level 1 ...
       12996 cells,     1 zone  ...
       43722 faces,     8 zones ...
       17864 nodes,     1 zone  ...
  Done.
Done.

Writing to Engs-30669:"C:\Users\kebl7595\Desktop\CFD\Runs\Viscous\Mach 0.3\3 degrees\project1.dat.h5" in NODE0 mode and compression level 1 ...
  Writing results.
Done.

> /file/export/ascii "./surface.dat" wing te () no pressure mach-number quit no

Writing "./surface.dat"...

Writing information to ascii file ...
Done.


> /report/forces/wall-forces y -0.052336 0.99863 0 y "Lift"

> /report/forces/wall-forces y 0.99863 0.052336 0 y "Drag"

> /exit

Posting ANSYS Product Improvement Program performance data 
Done.
Auto-Transcript Stop Time:  14:00:39, 21 May 2024 GMT Daylight Time 
Total Transcript Time: 4 Minute 18 Second.
