Auto-Transcript Start Time:  13:56:49, 21 May 2024 GMT Daylight Time 
Current Directory: "C:\Users\kebl7595\Desktop\CFD\Runs\Viscous\Mach 0.3\9 degrees"

              Welcome to ANSYS Fluent 2023 R1

              Copyright 1987-2023 ANSYS, Inc. All Rights Reserved.
              Unauthorized use, distribution or duplication is prohibited.
              This product is subject to U.S. laws governing export and re-export.
              For full Legal Notice, see documentation.

Build Time: Nov 28 2022 09:52:02 EST  Build Id: 10208  
 
Connected License Server List:	1055@ansyslic.eng.ox.ac.uk

*********************************************
Info: Your license enables 4-way parallel execution.
For faster simulations, please start the application with the appropriate parallel options.
*********************************************


     --------------------------------------------------------------
     This is an academic version of ANSYS FLUENT. Usage of this product
     license is limited to the terms and conditions specified in your ANSYS
     license form, additional terms section.
     --------------------------------------------------------------
Host spawning Node 0 on machine "Engs-30669" (win64).

------------------------------------------------------------------------------------
ID    Hostname    Core  O.S.         PID    Vendor                                 
------------------------------------------------------------------------------------
n0    Engs-30669  1/32  Windows-x64  48644  13th Gen Intel(R) Core(TM) i9-13900    
host  Engs-30669        Windows-x64  2504   13th Gen Intel(R) Core(TM) i9-13900    

MPI Option Selected: intel
------------------------------------------------------------------------------------

Cleanup script file is C:\\Users\\kebl7595\\Desktop\\CFD\\Runs\\Viscous\\Mach 0.3\\9 degrees\\cleanup-fluent-Engs-30669-2504.bat
QA Service Message :
QA Services Agreement Enabled. This application is included in the scope of an ANSYS QA Services Agreement.
Posting ANSYS Product Improvement Program startup data
Done.

Reading journal file C:/Users/kebl7595/Desktop/CFD/Runs/Viscous/Mach 0.3/9 degrees/project1.jou...

> /file/set-batch-options no no no 

> 
define/                 parametric-study/       solve/
display/                plot/                   surface/
exit                    preferences/            switch-to-meshing-mode
file/                   print-license-usage     turbo-workflow/
mesh/                   report/                 views/
parallel/               server/

> /file/import/cgns/mesh  "./project1.cgns"
Engs-30669 has other FLUENT parallel processes running.                       Process affinity not being set.

Importing "./project1.cgns"

Opening library "C:\\PROGRA~1\\ANSYSI~1\\v231\\fluent\\fluent23.1.0\\vki\\win64\\devtools4.4.6.dll"... done.

Read    17864 nodes
   12996 hexahedral cells, zone  1
    9462 quadrilateral wall faces, zone  2.
   33972 quadrilateral interior faces, zone  3.
     282 quadrilateral interface faces, zone  4.
       6 quadrilateral wall faces, zone  5.

Building...
     mesh
     materials,
     interface,
     domains,
     zones,
	default_exterior-1
	interface-default_subface
	default_interior-1
	default_subface
	default
     parallel,
The automatic selection for flux type has changed to Rhie-Chow: momentum based.

Done.


> 
adjoint/                parallel/               server/
define/                 parametric-study/       solve/
display/                plot/                   surface/
exit                    preferences/            turbo-workflow/
file/                   print-license-usage     views/
mesh/                   report/

> /define/models/solver/density-based-implicit yes

> 
adjoint/                parallel/               server/
define/                 parametric-study/       solve/
display/                plot/                   surface/
exit                    preferences/            turbo-workflow/
file/                   print-license-usage     views/
mesh/                   report/

> /define/models/energy? yes yes invalid command [yes]
yes

> /define/models/viscous/kw-standard? yes

> 
adjoint/                parallel/               server/
define/                 parametric-study/       solve/
display/                plot/                   surface/
exit                    preferences/            turbo-workflow/
file/                   print-license-usage     views/
mesh/                   report/

> /define/materials/change-create air air air is a fluid
yes 
Density
ideal-gas no data required.

no no no no no no

> 
adjoint/                parallel/               server/
define/                 parametric-study/       solve/
display/                plot/                   surface/
exit                    preferences/            turbo-workflow/
file/                   print-license-usage     views/
mesh/                   report/

> /mesh/modify-zones/sep-face-zone-angle 2 90 yes

 4332 faces in contiguous region 0
 228 faces in contiguous region 1
 342 faces in contiguous region 2
 4332 faces in contiguous region 3
 228 faces in contiguous region 4
 Separates zone 2 into 5 zone(s).
Updating new zone information...
   created new zone default_subface:010 from default_subface
   created new zone default_subface:009 from default_subface
   created new zone default_subface:008 from default_subface
   created new zone default_subface:007 from default_subface
done.

> 
adjoint/                parallel/               server/
define/                 parametric-study/       solve/
display/                plot/                   surface/
exit                    preferences/            turbo-workflow/
file/                   print-license-usage     views/
mesh/                   report/

> /define/boundary-conditions/zone-name  5   te

> /define/boundary-conditions/zone-name  7 wing

> /define/boundary-conditions/zone-name  2 sym1

> /define/boundary-conditions/zone-name  9 sym2

> 
adjoint/                parallel/               server/
define/                 parametric-study/       solve/
display/                plot/                   surface/
exit                    preferences/            turbo-workflow/
file/                   print-license-usage     views/
mesh/                   report/

> /define/boundary-conditions/zone-name  8 far1

> /define/boundary-conditions/zone-name 10 far2

> 
adjoint/                parallel/               server/
define/                 parametric-study/       solve/
display/                plot/                   surface/
exit                    preferences/            turbo-workflow/
file/                   print-license-usage     views/
mesh/                   report/

> /define/boundary-conditions/zone-type  8 pressure-far-field

> /define/boundary-conditions/zone-type 10 pressure-far-field

> /define/boundary-conditions/zone-type  2 symmetry

> /define/boundary-conditions/zone-type  9 symmetry

> 
adjoint/                parallel/               server/
define/                 parametric-study/       solve/
display/                plot/                   surface/
exit                    preferences/            turbo-workflow/
file/                   print-license-usage     views/
mesh/                   report/

> /define/boundary-conditions/pressure-far-field (far2 far1)
far1 no 0 no 0.3 no 300 yes no 0.98769 no 0.15643 no 0. no yes 5 0.02

> /define/boundary-conditions/pressure-far-field (far2 far1)
far2 no 0 no 0.3 no 300 yes no 0.98769 no 0.15643 no 0. no yes 5 0.02

> 
adjoint/                parallel/               server/
define/                 parametric-study/       solve/
display/                plot/                   surface/
exit                    preferences/            turbo-workflow/
file/                   print-license-usage     views/
mesh/                   report/

> /solve/initialize/compute-defaults/pressure-far-field (far2 far1)
far1

> /solve/initialize/initialize-flow

> 
adjoint/                parallel/               server/
define/                 parametric-study/       solve/
display/                plot/                   surface/
exit                    preferences/            turbo-workflow/
file/                   print-license-usage     views/
mesh/                   report/

> /solve/monitors/residual/convergence-criteria 1.e-9 1.e-9 1.e-9 1.e-9 1.e-9 1.e-9 1.e-9

> /solve/iterate 2000

  iter  continuity  x-velocity  y-velocity  z-velocity      energy           k       omega     time/iter
     1  1.0000e+00  1.0000e+00  1.0000e+00  1.0000e+00  1.0000e+00  1.7129e-01  1.2638e-01  0:00:00 1999
     2  4.9836e-01  4.0601e-01  4.4846e-01  1.0000e+00  5.0349e-01  1.3176e-01  1.0142e-01  0:33:18 1998
     3  2.7780e-01  2.1809e-01  2.3466e-01  8.8727e-01  2.7928e-01  1.0472e-01  8.3885e-02  0:26:38 1997
     4  1.8330e-01  1.6833e-01  1.5079e-01  5.3431e-01  1.8376e-01  8.5952e-02  7.0723e-02  0:21:17 1996
     5  1.3819e-01  1.3078e-01  1.0383e-01  8.4789e-01  1.3872e-01  7.3395e-02  6.0799e-02  0:17:01 1995
     6  1.1571e-01  9.5329e-02  7.3722e-02  1.1246e+00  1.1667e-01  6.3859e-02  5.3507e-02  0:13:37 1994
     7  1.0169e-01  7.1096e-02  5.4467e-02  1.0833e+00  1.0302e-01  5.6182e-02  4.7708e-02  0:10:53 1993
     8  8.9750e-02  5.4665e-02  4.2410e-02  9.3030e-01  9.1239e-02  4.9835e-02  4.2879e-02  0:08:42 1992
     9  7.9403e-02  4.3900e-02  3.4714e-02  8.0922e-01  8.0891e-02  4.4550e-02  3.8792e-02  0:13:36 1991
    10  7.0507e-02  3.6941e-02  2.9457e-02  7.4731e-01  7.1901e-02  4.0145e-02  3.5299e-02  0:10:52 1990
    11  6.3211e-02  3.2506e-02  2.5556e-02  7.4372e-01  6.4473e-02  3.6491e-02  3.2290e-02  0:08:42 1989

  iter  continuity  x-velocity  y-velocity  z-velocity      energy           k       omega     time/iter
    12  5.7503e-02  2.9952e-02  2.2452e-02  8.2475e-01  5.8623e-02  3.3420e-02  2.9691e-02  0:06:57 1988
    13  5.3306e-02  2.8771e-02  1.9906e-02  1.0151e+00  5.4297e-02  3.0779e-02  2.7460e-02  0:05:33 1987
    14  5.0499e-02  2.8398e-02  1.7847e-02  1.3184e+00  5.1378e-02  2.8484e-02  2.5503e-02  0:04:27 1986
    15  4.8884e-02  2.8569e-02  1.6258e-02  1.7372e+00  4.9668e-02  2.6477e-02  2.3769e-02  0:03:33 1985
    16  4.8233e-02  2.9157e-02  1.5132e-02  2.2636e+00  4.8937e-02  2.4713e-02  2.2226e-02  0:02:50 1984
    17  4.8320e-02  3.0119e-02  1.4425e-02  2.8832e+00  4.8956e-02  2.3164e-02  2.0858e-02  0:08:53 1983
    18  4.8933e-02  3.1328e-02  1.4063e-02  3.5778e+00  4.9505e-02  2.1777e-02  1.9629e-02  0:07:06 1982
    19  4.9898e-02  3.2706e-02  1.3947e-02  4.3202e+00  5.0408e-02  2.0532e-02  1.8513e-02  0:05:41 1981
    20  5.1053e-02  3.4117e-02  1.4017e-02  5.0775e+00  5.1497e-02  1.9409e-02  1.7499e-02  0:04:32 1980
    21  5.2255e-02  3.5417e-02  1.4221e-02  5.8119e+00  5.2626e-02  1.8388e-02  1.6574e-02  0:03:38 1979
    22  5.3371e-02  3.6530e-02  1.4554e-02  6.4826e+00  5.3662e-02  1.7450e-02  1.5730e-02  0:02:54 1978

  iter  continuity  x-velocity  y-velocity  z-velocity      energy           k       omega     time/iter
    23  5.4262e-02  3.7341e-02  1.5002e-02  7.0504e+00  5.4462e-02  1.6586e-02  1.4957e-02  0:02:19 1977
    24  5.4845e-02  3.7841e-02  1.5531e-02  7.4810e+00  5.4947e-02  1.5792e-02  1.4250e-02  0:01:51 1976
    25  5.5051e-02  3.7978e-02  1.6170e-02  7.7418e+00  5.5047e-02  1.5059e-02  1.3598e-02  0:01:29 1975
    26  5.4835e-02  3.7852e-02  1.6741e-02  7.8112e+00  5.4720e-02  1.4386e-02  1.2992e-02  0:01:11 1974
    27  5.4167e-02  3.7281e-02  1.7335e-02  7.6796e+00  5.3939e-02  1.3769e-02  1.2431e-02  0:07:32 1973
    28  5.3065e-02  3.6621e-02  1.7819e-02  7.3491e+00  5.2724e-02  1.3189e-02  1.1908e-02  0:06:01 1972
    29  5.1540e-02  3.5883e-02  1.8184e-02  6.8259e+00  5.1092e-02  1.2646e-02  1.1418e-02  0:04:49 1971
    30  4.9621e-02  3.5028e-02  1.8512e-02  6.1984e+00  4.9070e-02  1.2139e-02  1.0953e-02  0:03:51 1970
    31  4.7357e-02  3.4185e-02  1.8831e-02  5.5037e+00  4.6714e-02  1.1664e-02  1.0516e-02  0:03:05 1969
    32  4.4785e-02  3.3431e-02  1.9138e-02  4.7848e+00  4.4060e-02  1.1218e-02  1.0107e-02  0:02:28 1968
    33  4.1938e-02  3.2575e-02  1.9480e-02  4.1653e+00  4.1142e-02  1.0799e-02  9.7263e-03  0:01:58 1967

  iter  continuity  x-velocity  y-velocity  z-velocity      energy           k       omega     time/iter
    34  3.8895e-02  3.2010e-02  1.9866e-02  3.8020e+00  3.8041e-02  1.0402e-02  9.3667e-03  0:01:34 1966
    35  3.5698e-02  3.1616e-02  2.0308e-02  3.8206e+00  3.4797e-02  1.0027e-02  9.0256e-03  0:01:15 1965
    36  3.2428e-02  3.1523e-02  2.0850e-02  4.1615e+00  3.1492e-02  9.6704e-03  8.6995e-03  0:01:00 1964
    37  2.9128e-02  3.1596e-02  2.1510e-02  4.7202e+00  2.8168e-02  9.3411e-03  8.3801e-03  0:00:48 1963
    38  2.5843e-02  3.1809e-02  2.2267e-02  5.3812e+00  2.4869e-02  9.0307e-03  8.0761e-03  0:07:11 1962
    39  2.2628e-02  3.2131e-02  2.3079e-02  6.0814e+00  2.1646e-02  8.7442e-03  7.7779e-03  0:05:45 1961
    40  1.9526e-02  3.2436e-02  2.3898e-02  6.7389e+00  1.8541e-02  8.4714e-03  7.5026e-03  0:04:36 1960
    41  1.6595e-02  3.2904e-02  2.4673e-02  7.3212e+00  1.5613e-02  8.2145e-03  7.2427e-03  0:03:40 1959
    42  1.3910e-02  3.3379e-02  2.5447e-02  7.8103e+00  1.2936e-02  7.9784e-03  6.9976e-03  0:02:56 1958
    43  1.1550e-02  3.3839e-02  2.6155e-02  8.2140e+00  1.0597e-02  7.7489e-03  6.7608e-03  0:02:21 1957
    44  9.6035e-03  3.4266e-02  2.6757e-02  8.5133e+00  8.6941e-03  7.5232e-03  6.5314e-03  0:01:53 1956

  iter  continuity  x-velocity  y-velocity  z-velocity      energy           k       omega     time/iter
    45  8.1845e-03  3.4613e-02  2.7240e-02  8.6893e+00  7.3632e-03  7.3125e-03  6.3140e-03  0:01:30 1955
    46  7.3958e-03  3.4859e-02  2.7584e-02  8.7367e+00  6.7233e-03  7.1181e-03  6.1003e-03  0:01:12 1954
    47  7.2309e-03  3.5040e-02  2.7781e-02  8.6484e+00  6.7470e-03  6.9249e-03  5.9027e-03  0:00:58 1953
    48  7.5595e-03  3.5114e-02  2.7838e-02  8.4227e+00  7.2543e-03  6.7366e-03  5.7046e-03  0:00:46 1952
    49  8.1947e-03  3.5084e-02  2.7757e-02  8.1063e+00  8.0276e-03  6.5492e-03  5.5062e-03  0:07:07 1951
    50  8.9736e-03  3.4944e-02  2.7546e-02  7.6741e+00  8.9027e-03  6.3626e-03  5.3051e-03  0:05:41 1950
    51  9.7795e-03  3.4696e-02  2.7217e-02  7.1394e+00  9.7726e-03  6.1786e-03  5.1059e-03  0:04:33 1949
    52  1.0548e-02  3.4369e-02  2.6777e-02  6.5073e+00  1.0583e-02  5.9936e-03  4.9007e-03  0:03:38 1948
    53  1.1241e-02  3.3970e-02  2.6230e-02  5.7879e+00  1.1304e-02  5.8060e-03  4.6974e-03  0:02:55 1947
    54  1.1849e-02  3.3517e-02  2.5603e-02  5.0578e+00  1.1930e-02  5.6240e-03  4.4988e-03  0:02:20 1946
    55  1.2364e-02  3.3002e-02  2.4914e-02  4.3674e+00  1.2457e-02  5.4440e-03  4.3118e-03  0:01:52 1945

  iter  continuity  x-velocity  y-velocity  z-velocity      energy           k       omega     time/iter
    56  1.2785e-02  3.2440e-02  2.4181e-02  3.7916e+00  1.2886e-02  5.2701e-03  4.1324e-03  0:01:29 1944
    57  1.3117e-02  3.1844e-02  2.3410e-02  3.4555e+00  1.3222e-02  5.1096e-03  3.9760e-03  0:01:11 1943
    58  1.3363e-02  3.1220e-02  2.2612e-02  3.4476e+00  1.3471e-02  5.0065e-03  3.8455e-03  0:00:57 1942
    59  1.3531e-02  3.0579e-02  2.1789e-02  3.7419e+00  1.3640e-02  4.9498e-03  3.7435e-03  0:07:14 1941
    60  1.3624e-02  2.9870e-02  2.0973e-02  4.2436e+00  1.3732e-02  4.9085e-03  3.6469e-03  0:05:47 1940
    61  1.3648e-02  2.9171e-02  2.0136e-02  4.8867e+00  1.3754e-02  4.8805e-03  3.5568e-03  0:04:37 1939
    62  1.3610e-02  2.8447e-02  1.9292e-02  5.5848e+00  1.3713e-02  4.8526e-03  3.4710e-03  0:03:42 1938
    63  1.3514e-02  2.7716e-02  1.8438e-02  6.2703e+00  1.3612e-02  4.8274e-03  3.3968e-03  0:02:57 1937
    64  1.3361e-02  2.6963e-02  1.7592e-02  6.8801e+00  1.3453e-02  4.8022e-03  3.3256e-03  0:02:22 1936
    65  1.3155e-02  2.6228e-02  1.6745e-02  7.3829e+00  1.3241e-02  4.7873e-03  3.2634e-03  0:01:53 1935
    66  1.2894e-02  2.5492e-02  1.5899e-02  7.7784e+00  1.2973e-02  4.7678e-03  3.2014e-03  0:01:31 1934

  iter  continuity  x-velocity  y-velocity  z-velocity      energy           k       omega     time/iter
    67  1.2577e-02  2.4672e-02  1.5080e-02  8.0519e+00  1.2648e-02  4.7478e-03  3.1413e-03  0:01:12 1933
    68  1.2213e-02  2.3872e-02  1.4251e-02  8.2127e+00  1.2276e-02  4.7266e-03  3.0891e-03  0:00:58 1932
    69  1.1799e-02  2.3080e-02  1.3426e-02  8.1717e+00  1.1853e-02  4.6981e-03  3.0441e-03  0:00:46 1931
    70  1.1341e-02  2.2233e-02  1.2668e-02  7.9925e+00  1.1385e-02  4.6631e-03  2.9930e-03  0:00:37 1930
    71  1.0840e-02  2.1401e-02  1.1913e-02  7.7478e+00  1.0874e-02  4.6170e-03  2.9419e-03  0:06:55 1929
    72  1.0296e-02  2.0570e-02  1.1168e-02  7.4220e+00  1.0319e-02  4.5624e-03  2.8845e-03  0:05:32 1928
    73  9.7118e-03  1.9749e-02  1.0443e-02  7.0159e+00  9.7235e-03  4.5065e-03  2.8264e-03  0:04:26 1927
    74  9.0893e-03  1.8936e-02  9.7459e-03  6.5403e+00  9.0893e-03  4.4461e-03  2.7669e-03  0:03:32 1926
    75  8.4357e-03  1.8102e-02  9.0816e-03  6.0043e+00  8.4237e-03  4.3778e-03  2.7104e-03  0:02:50 1925
    76  7.7657e-03  1.7346e-02  8.4401e-03  5.4373e+00  7.7409e-03  4.3068e-03  2.6463e-03  0:02:16 1924
    77  7.0910e-03  1.6661e-02  7.8306e-03  4.8628e+00  7.0525e-03  4.2343e-03  2.5848e-03  0:01:49 1923

  iter  continuity  x-velocity  y-velocity  z-velocity      energy           k       omega     time/iter
    78  6.4335e-03  1.6056e-02  7.2599e-03  4.3288e+00  6.3805e-03  4.1554e-03  2.5268e-03  0:01:27 1922
    79  5.8248e-03  1.5520e-02  6.7393e-03  3.8962e+00  5.7561e-03  4.0733e-03  2.4601e-03  0:01:09 1921
    80  5.3107e-03  1.5084e-02  6.2641e-03  3.6065e+00  5.2254e-03  3.9898e-03  2.3950e-03  0:00:55 1920
    81  4.9381e-03  1.4765e-02  5.8366e-03  3.5194e+00  4.8364e-03  3.9080e-03  2.3272e-03  0:00:44 1919
    82  4.7948e-03  1.4576e-02  5.4639e-03  3.6303e+00  4.6791e-03  3.8207e-03  2.2680e-03  0:00:35 1918
    83  4.9163e-03  1.4439e-02  5.1511e-03  3.9145e+00  4.7904e-03  3.7409e-03  2.2054e-03  0:06:52 1917
    84  5.2952e-03  1.4351e-02  4.9149e-03  4.3152e+00  5.1632e-03  3.6705e-03  2.1435e-03  0:05:29 1916
    85  5.8884e-03  1.4288e-02  4.7455e-03  4.7618e+00  5.7522e-03  3.6178e-03  2.0902e-03  0:04:23 1915
    86  6.6411e-03  1.4233e-02  4.6465e-03  5.2180e+00  6.5005e-03  3.5971e-03  2.0578e-03  0:03:30 1914
    87  7.5059e-03  1.4240e-02  4.5809e-03  5.6375e+00  7.3590e-03  3.5994e-03  2.0441e-03  0:02:48 1913
    88  8.4367e-03  1.4263e-02  4.5721e-03  6.0112e+00  8.2809e-03  3.6058e-03  2.0309e-03  0:02:15 1912

  iter  continuity  x-velocity  y-velocity  z-velocity      energy           k       omega     time/iter
    89  9.3949e-03  1.4275e-02  4.6296e-03  6.3260e+00  9.2276e-03  3.6198e-03  2.0178e-03  0:01:48 1911
    90  1.0355e-02  1.4268e-02  4.7640e-03  6.5442e+00  1.0174e-02  3.6535e-03  2.0031e-03  0:01:26 1910
    91  1.1294e-02  1.4238e-02  4.9287e-03  6.6598e+00  1.1096e-02  3.6963e-03  1.9951e-03  0:01:09 1909
    92  1.2188e-02  1.4140e-02  5.1218e-03  6.6830e+00  1.1972e-02  3.7393e-03  1.9838e-03  0:00:55 1908
    93  1.3026e-02  1.4018e-02  5.3974e-03  6.6058e+00  1.2791e-02  3.7822e-03  1.9684e-03  0:00:44 1907
    94  1.3796e-02  1.3848e-02  5.7162e-03  6.4392e+00  1.3539e-02  3.8281e-03  1.9522e-03  0:06:56 1906
    95  1.4482e-02  1.3648e-02  6.0791e-03  6.1787e+00  1.4202e-02  3.8828e-03  1.9377e-03  0:05:33 1905
    96  1.5062e-02  1.3388e-02  6.4929e-03  5.8375e+00  1.4758e-02  3.9390e-03  1.9245e-03  0:04:26 1904
    97  1.5524e-02  1.3043e-02  6.9631e-03  5.4297e+00  1.5194e-02  3.9925e-03  1.9071e-03  0:03:33 1903
    98  1.5861e-02  1.2685e-02  7.4431e-03  4.9752e+00  1.5506e-02  4.0404e-03  1.8920e-03  0:02:50 1902
    99  1.6084e-02  1.2334e-02  7.9273e-03  4.4866e+00  1.5703e-02  4.0819e-03  1.8808e-03  0:02:16 1901

  iter  continuity  x-velocity  y-velocity  z-velocity      energy           k       omega     time/iter
   100  1.6202e-02  1.1997e-02  8.4257e-03  3.9837e+00  1.5795e-02  4.1220e-03  1.8685e-03  0:01:49 1900
   101  1.6208e-02  1.1681e-02  8.9354e-03  3.4923e+00  1.5776e-02  4.1501e-03  1.8564e-03  0:01:27 1899
   102  1.6098e-02  1.1389e-02  9.4516e-03  3.0331e+00  1.5641e-02  4.1739e-03  1.8388e-03  0:01:10 1898
   103  1.5865e-02  1.1202e-02  9.9512e-03  2.6899e+00  1.5385e-02  4.1967e-03  1.8187e-03  0:00:56 1897
   104  1.5529e-02  1.1002e-02  1.0463e-02  2.5190e+00  1.5026e-02  4.2178e-03  1.8063e-03  0:00:44 1896
   105  1.5099e-02  1.0911e-02  1.0965e-02  2.5564e+00  1.4575e-02  4.2291e-03  1.7844e-03  0:00:36 1895
   106  1.4583e-02  1.0967e-02  1.1435e-02  2.7799e+00  1.4039e-02  4.2305e-03  1.7671e-03  0:06:47 1894
   107  1.4000e-02  1.1172e-02  1.1871e-02  3.1169e+00  1.3438e-02  4.2250e-03  1.7531e-03  0:05:26 1893
   108  1.3336e-02  1.1388e-02  1.2248e-02  3.5061e+00  1.2757e-02  4.2229e-03  1.7368e-03  0:04:20 1892
   109  1.2579e-02  1.1707e-02  1.2604e-02  3.9055e+00  1.1985e-02  4.2100e-03  1.7109e-03  0:03:28 1891
   110  1.1771e-02  1.2090e-02  1.2935e-02  4.2796e+00  1.1162e-02  4.1892e-03  1.6887e-03  0:02:46 1890

  iter  continuity  x-velocity  y-velocity  z-velocity      energy           k       omega     time/iter
   111  1.0925e-02  1.2486e-02  1.3225e-02  4.6021e+00  1.0303e-02  4.1585e-03  1.6737e-03  0:02:13 1889
   112  1.0052e-02  1.2970e-02  1.3455e-02  4.8758e+00  9.4195e-03  4.1239e-03  1.6553e-03  0:01:46 1888
   113  9.1431e-03  1.3549e-02  1.3637e-02  5.0787e+00  8.5002e-03  4.0913e-03  1.6277e-03  0:01:25 1887
   114  8.2587e-03  1.4153e-02  1.3778e-02  5.2132e+00  7.6093e-03  4.0569e-03  1.6010e-03  0:01:08 1886
   115  7.3865e-03  1.4772e-02  1.3871e-02  5.2903e+00  6.7329e-03  4.0178e-03  1.5687e-03  0:00:54 1885
   116  6.5375e-03  1.5392e-02  1.3916e-02  5.2986e+00  5.8829e-03  3.9721e-03  1.5415e-03  0:00:43 1884
   117  5.7308e-03  1.5996e-02  1.3910e-02  5.2419e+00  5.0804e-03  3.9289e-03  1.5136e-03  0:06:51 1883
   118  4.9892e-03  1.6568e-02  1.3854e-02  5.1305e+00  4.3519e-03  3.8852e-03  1.4901e-03  0:05:29 1882
   119  4.3440e-03  1.7091e-02  1.3745e-02  4.9510e+00  3.7360e-03  3.8309e-03  1.4682e-03  0:04:23 1881
   120  3.8362e-03  1.7569e-02  1.3596e-02  4.7441e+00  3.2852e-03  3.7714e-03  1.4384e-03  0:03:30 1880
   121  3.5093e-03  1.8017e-02  1.3398e-02  4.4818e+00  3.0532e-03  3.7070e-03  1.4029e-03  0:02:48 1879

  iter  continuity  x-velocity  y-velocity  z-velocity      energy           k       omega     time/iter
   122  3.3939e-03  1.8408e-02  1.3150e-02  4.1733e+00  3.0638e-03  3.6409e-03  1.3645e-03  0:02:14 1878
   123  3.4918e-03  1.8755e-02  1.2848e-02  3.8275e+00  3.2923e-03  3.5884e-03  1.3381e-03  0:01:47 1877
   124  3.7561e-03  1.9052e-02  1.2494e-02  3.4559e+00  3.6661e-03  3.5382e-03  1.3216e-03  0:01:26 1876
   125  4.1312e-03  1.9252e-02  1.2121e-02  3.0697e+00  4.1220e-03  3.4887e-03  1.3061e-03  0:01:09 1875
   126  4.5650e-03  1.9377e-02  1.1717e-02  2.6789e+00  4.6108e-03  3.4357e-03  1.2926e-03  0:00:55 1874
   127  5.0229e-03  1.9434e-02  1.1284e-02  2.2924e+00  5.1038e-03  3.3853e-03  1.2766e-03  0:06:59 1873
   128  5.4778e-03  1.9424e-02  1.0825e-02  1.9257e+00  5.5795e-03  3.3398e-03  1.2605e-03  0:05:35 1872
   129  5.9098e-03  1.9395e-02  1.0316e-02  1.5881e+00  6.0226e-03  3.2972e-03  1.2446e-03  0:04:28 1871
   130  6.3085e-03  1.9345e-02  9.7794e-03  1.3006e+00  6.4256e-03  3.2532e-03  1.2304e-03  0:03:34 1870
   131  6.6692e-03  1.9099e-02  9.3112e-03  1.1018e+00  6.7840e-03  3.2031e-03  1.2143e-03  0:02:51 1869
   132  6.9818e-03  1.8752e-02  8.8487e-03  1.0296e+00  7.0895e-03  3.1515e-03  1.2021e-03  0:02:17 1868

  iter  continuity  x-velocity  y-velocity  z-velocity      energy           k       omega     time/iter
   133  7.2414e-03  1.8348e-02  8.3737e-03  1.0977e+00  7.3387e-03  3.1006e-03  1.1934e-03  0:01:49 1867
   134  7.4444e-03  1.7903e-02  7.8897e-03  1.2714e+00  7.5291e-03  3.0463e-03  1.1790e-03  0:01:27 1866
   135  7.5870e-03  1.7419e-02  7.4060e-03  1.4904e+00  7.6578e-03  2.9890e-03  1.1652e-03  0:01:10 1865
   136  7.6678e-03  1.6896e-02  6.9345e-03  1.7181e+00  7.7238e-03  2.9291e-03  1.1532e-03  0:00:56 1864
   137  7.6888e-03  1.6421e-02  6.4445e-03  1.9382e+00  7.7301e-03  2.8702e-03  1.1400e-03  0:00:45 1863
   138  7.6529e-03  1.5901e-02  6.0196e-03  2.1454e+00  7.6792e-03  2.8047e-03  1.1279e-03  0:06:48 1862
   139  7.5600e-03  1.5323e-02  5.6518e-03  2.3374e+00  7.5713e-03  2.7329e-03  1.1196e-03  0:05:26 1861
   140  7.4095e-03  1.4714e-02  5.3274e-03  2.5119e+00  7.4056e-03  2.6590e-03  1.1033e-03  0:04:21 1860
   141  7.2027e-03  1.4089e-02  5.0342e-03  2.6703e+00  7.1839e-03  2.5879e-03  1.0868e-03  0:03:29 1859
   142  6.9440e-03  1.3455e-02  4.8046e-03  2.8036e+00  6.9108e-03  2.5165e-03  1.0718e-03  0:02:47 1858
   143  6.6373e-03  1.2829e-02  4.6389e-03  2.9151e+00  6.5901e-03  2.4500e-03  1.0592e-03  0:02:13 1857

  iter  continuity  x-velocity  y-velocity  z-velocity      energy           k       omega     time/iter
   144  6.2864e-03  1.2271e-02  4.4081e-03  3.0045e+00  6.2254e-03  2.3815e-03  1.0432e-03  0:01:47 1856
   145  5.8932e-03  1.1712e-02  4.2871e-03  3.0736e+00  5.8193e-03  2.3130e-03  1.0287e-03  0:01:25 1855
   146  5.4641e-03  1.1177e-02  4.2153e-03  3.1238e+00  5.3780e-03  2.2471e-03  1.0138e-03  0:01:08 1854
   147  5.0042e-03  1.0696e-02  4.1725e-03  3.1559e+00  4.9064e-03  2.1861e-03  1.0036e-03  0:00:55 1853
   148  4.5217e-03  1.0274e-02  4.1640e-03  3.1718e+00  4.4141e-03  2.1305e-03  9.9408e-04  0:06:54 1852
   149  4.0257e-03  9.9077e-03  4.1808e-03  3.1712e+00  3.9118e-03  2.0804e-03  9.8014e-04  0:05:31 1851
   150  3.5275e-03  9.6036e-03  4.2098e-03  3.1509e+00  3.4082e-03  2.0401e-03  9.6414e-04  0:04:25 1850
   151  3.0243e-03  9.7005e-03  4.1448e-03  3.1202e+00  2.9038e-03  2.0036e-03  9.5834e-04  0:03:32 1849
   152  2.5763e-03  9.6302e-03  4.2128e-03  3.0770e+00  2.4573e-03  1.9691e-03  9.4912e-04  0:02:49 1848
   153  2.1965e-03  9.4257e-03  4.2443e-03  3.0206e+00  2.0826e-03  1.9403e-03  9.3424e-04  0:02:15 1847
   154  1.9382e-03  9.2663e-03  4.2234e-03  2.9518e+00  1.8390e-03  1.9146e-03  9.2040e-04  0:01:48 1846

  iter  continuity  x-velocity  y-velocity  z-velocity      energy           k       omega     time/iter
   155  1.8508e-03  9.1504e-03  4.1664e-03  2.8748e+00  1.7786e-03  1.8889e-03  9.0615e-04  0:01:26 1845
   156  1.9496e-03  9.0159e-03  4.1330e-03  2.7896e+00  1.9065e-03  1.8605e-03  8.8758e-04  0:01:09 1844
   157  2.2047e-03  8.9941e-03  4.0982e-03  2.6900e+00  2.1849e-03  1.8294e-03  8.7311e-04  0:00:55 1843
   158  2.5332e-03  9.0351e-03  3.9990e-03  2.5827e+00  2.5284e-03  1.7975e-03  8.5857e-04  0:06:53 1842
   159  2.8882e-03  9.0574e-03  3.8859e-03  2.4681e+00  2.8916e-03  1.7653e-03  8.4411e-04  0:05:30 1841
   160  3.2461e-03  9.0418e-03  3.7659e-03  2.3545e+00  3.2528e-03  1.7293e-03  8.2606e-04  0:04:24 1840
   161  3.5913e-03  8.9721e-03  3.6410e-03  2.2342e+00  3.5978e-03  1.6932e-03  8.0987e-04  0:03:31 1839
   162  3.9126e-03  8.8494e-03  3.5084e-03  2.1101e+00  3.9164e-03  1.6597e-03  7.9533e-04  0:02:49 1838
   163  4.2023e-03  8.6637e-03  3.3742e-03  1.9808e+00  4.2015e-03  1.6309e-03  7.8421e-04  0:02:15 1837
   164  4.4548e-03  8.4533e-03  3.2302e-03  1.8511e+00  4.4480e-03  1.6033e-03  7.7597e-04  0:01:48 1836
   165  4.6653e-03  8.2209e-03  3.0833e-03  1.7217e+00  4.6518e-03  1.5742e-03  7.6889e-04  0:01:26 1835

  iter  continuity  x-velocity  y-velocity  z-velocity      energy           k       omega     time/iter
   166  4.8312e-03  7.9744e-03  2.9408e-03  1.5936e+00  4.8102e-03  1.5511e-03  7.6321e-04  0:07:16 1834
   167  4.9513e-03  7.7209e-03  2.8054e-03  1.4728e+00  4.9223e-03  1.5272e-03  7.5715e-04  0:05:48 1833
   168  5.0260e-03  7.4621e-03  2.6813e-03  1.3534e+00  4.9890e-03  1.5009e-03  7.5323e-04  0:04:39 1832
   169  5.0561e-03  7.1992e-03  2.5738e-03  1.2418e+00  5.0109e-03  1.4742e-03  7.4847e-04  0:03:43 1831
   170  5.0431e-03  6.9370e-03  2.4872e-03  1.1311e+00  4.9897e-03  1.4520e-03  7.4051e-04  0:02:58 1830
   171  4.9887e-03  6.6798e-03  2.4246e-03  1.0249e+00  4.9277e-03  1.4330e-03  7.3810e-04  0:02:22 1829
   172  4.8956e-03  6.4328e-03  2.3876e-03  9.3267e-01  4.8272e-03  1.4173e-03  7.3494e-04  0:01:54 1828
   173  4.7663e-03  6.2034e-03  2.3716e-03  8.5730e-01  4.6912e-03  1.4064e-03  7.2984e-04  0:01:31 1827
   174  4.6051e-03  6.0001e-03  2.3885e-03  7.9492e-01  4.5239e-03  1.3971e-03  7.2941e-04  0:01:13 1826
   175  4.4157e-03  5.8200e-03  2.4297e-03  7.5420e-01  4.3290e-03  1.3947e-03  7.2934e-04  0:00:58 1825
   176  4.2011e-03  5.6709e-03  2.4823e-03  7.3986e-01  4.1097e-03  1.4033e-03  7.3099e-04  0:06:51 1824

  iter  continuity  x-velocity  y-velocity  z-velocity      energy           k       omega     time/iter
   177  3.9666e-03  5.5538e-03  2.5435e-03  7.5148e-01  3.8714e-03  1.4169e-03  7.3072e-04  0:05:29 1823
   178  3.7170e-03  5.4719e-03  2.6090e-03  7.8775e-01  3.6190e-03  1.4313e-03  7.2881e-04  0:04:23 1822
   179  3.4583e-03  5.4257e-03  2.6755e-03  8.4507e-01  3.3587e-03  1.4461e-03  7.2728e-04  0:03:30 1821
   180  3.1970e-03  5.4129e-03  2.7395e-03  9.1800e-01  3.0970e-03  1.4666e-03  7.2671e-04  0:02:48 1820
   181  2.9392e-03  5.4268e-03  2.7962e-03  9.9835e-01  2.8402e-03  1.4908e-03  7.2839e-04  0:02:14 1819
   182  2.6923e-03  5.4673e-03  2.8446e-03  1.0799e+00  2.5960e-03  1.5149e-03  7.2766e-04  0:01:47 1818
   183  2.4637e-03  5.5275e-03  2.8838e-03  1.1594e+00  2.3720e-03  1.5366e-03  7.2669e-04  0:01:26 1817
   184  2.2614e-03  5.6004e-03  2.9116e-03  1.2346e+00  2.1766e-03  1.5576e-03  7.2618e-04  0:01:09 1816
   185  2.0942e-03  5.6812e-03  2.9263e-03  1.3037e+00  2.0187e-03  1.5792e-03  7.2494e-04  0:00:55 1815
   186  1.9696e-03  5.7648e-03  2.9271e-03  1.3637e+00  1.9056e-03  1.5994e-03  7.2418e-04  0:00:44 1814
   187  1.8916e-03  5.8468e-03  2.9137e-03  1.4129e+00  1.8409e-03  1.6201e-03  7.2685e-04  0:06:38 1813

  iter  continuity  x-velocity  y-velocity  z-velocity      energy           k       omega     time/iter
   188  1.8603e-03  5.9217e-03  2.8865e-03  1.4508e+00  1.8233e-03  1.6430e-03  7.2946e-04  0:05:18 1812
   189  1.8712e-03  5.9867e-03  2.8461e-03  1.4759e+00  1.8472e-03  1.6687e-03  7.2985e-04  0:04:14 1811
   190  1.9182e-03  6.0409e-03  2.7922e-03  1.4885e+00  1.9053e-03  1.6934e-03  7.2973e-04  0:03:23 1810
   191  1.9901e-03  6.0801e-03  2.7270e-03  1.4889e+00  1.9860e-03  1.7150e-03  7.2646e-04  0:02:43 1809
   192  2.0768e-03  6.1031e-03  2.6517e-03  1.4777e+00  2.0791e-03  1.7364e-03  7.2315e-04  0:02:10 1808
   193  2.1697e-03  6.1096e-03  2.5673e-03  1.4552e+00  2.1764e-03  1.7543e-03  7.2089e-04  0:01:44 1807
   194  2.2616e-03  6.0996e-03  2.4753e-03  1.4225e+00  2.2708e-03  1.7681e-03  7.1943e-04  0:01:23 1806
   195  2.3473e-03  6.0730e-03  2.3769e-03  1.3785e+00  2.3579e-03  1.7787e-03  7.1466e-04  0:01:06 1805
   196  2.4222e-03  6.0291e-03  2.2738e-03  1.3245e+00  2.4331e-03  1.7894e-03  7.0962e-04  0:00:53 1804
   197  2.4834e-03  5.9686e-03  2.1674e-03  1.2625e+00  2.4939e-03  1.7988e-03  7.0507e-04  0:06:43 1803
   198  2.5298e-03  5.8917e-03  2.0595e-03  1.1935e+00  2.5393e-03  1.8066e-03  6.9789e-04  0:05:22 1802

  iter  continuity  x-velocity  y-velocity  z-velocity      energy           k       omega     time/iter
   199  2.5597e-03  5.7960e-03  1.9491e-03  1.1193e+00  2.5679e-03  1.8111e-03  6.8943e-04  0:04:18 1801
   200  2.5734e-03  5.6885e-03  1.8426e-03  1.0417e+00  2.5800e-03  1.8132e-03  6.8167e-04  0:03:26 1800
   201  2.5707e-03  5.5708e-03  1.7377e-03  9.6341e-01  2.5755e-03  1.8152e-03  6.7308e-04  0:02:45 1799
   202  2.5518e-03  5.4418e-03  1.6362e-03  8.8279e-01  2.5548e-03  1.8146e-03  6.6712e-04  0:02:12 1798
   203  2.5169e-03  5.2862e-03  1.5441e-03  8.0008e-01  2.5181e-03  1.8101e-03  6.6394e-04  0:01:45 1797
   204  2.4681e-03  5.1220e-03  1.4672e-03  7.2875e-01  2.4675e-03  1.8057e-03  6.6045e-04  0:01:24 1796
   205  2.4061e-03  4.9794e-03  1.3709e-03  6.6448e-01  2.4038e-03  1.7973e-03  6.5795e-04  0:01:07 1795
   206  2.3317e-03  4.8334e-03  1.2869e-03  6.0437e-01  2.3277e-03  1.7822e-03  6.5614e-04  0:00:54 1794
   207  2.2468e-03  4.6859e-03  1.2158e-03  5.5443e-01  2.2411e-03  1.7695e-03  6.5387e-04  0:06:42 1793
   208  2.1527e-03  4.5396e-03  1.1556e-03  5.1398e-01  2.1454e-03  1.7507e-03  6.4997e-04  0:05:21 1792
   209  2.0509e-03  4.3965e-03  1.1050e-03  4.8693e-01  2.0418e-03  1.7298e-03  6.4499e-04  0:04:17 1791

  iter  continuity  x-velocity  y-velocity  z-velocity      energy           k       omega     time/iter
   210  1.9428e-03  4.2581e-03  1.0632e-03  4.7332e-01  1.9321e-03  1.7099e-03  6.4051e-04  0:03:25 1790
   211  1.8302e-03  4.1168e-03  1.0410e-03  4.7314e-01  1.8178e-03  1.6834e-03  6.3426e-04  0:02:44 1789
   212  1.7159e-03  3.9920e-03  1.0282e-03  4.8640e-01  1.7018e-03  1.6529e-03  6.2839e-04  0:02:11 1788
   213  1.6014e-03  3.8855e-03  1.0110e-03  5.1012e-01  1.5857e-03  1.6206e-03  6.2247e-04  0:01:45 1787
   214  1.4883e-03  3.7882e-03  9.9798e-04  5.4205e-01  1.4709e-03  1.5857e-03  6.1704e-04  0:01:24 1786
   215  1.3785e-03  3.6987e-03  9.8860e-04  5.7886e-01  1.3593e-03  1.5502e-03  6.1076e-04  0:01:07 1785
   216  1.2741e-03  3.6169e-03  9.8164e-04  6.1763e-01  1.2529e-03  1.5130e-03  6.0568e-04  0:00:54 1784
   217  1.1771e-03  3.5427e-03  9.7632e-04  6.5680e-01  1.1539e-03  1.4761e-03  5.9906e-04  0:06:39 1783
   218  1.0896e-03  3.4752e-03  9.7144e-04  6.9356e-01  1.0645e-03  1.4375e-03  5.9094e-04  0:05:19 1782
   219  1.0138e-03  3.4127e-03  9.6623e-04  7.2674e-01  9.8667e-04  1.3995e-03  5.8004e-04  0:04:15 1781
   220  9.5112e-04  3.3523e-03  9.6019e-04  7.5599e-01  9.2221e-04  1.3657e-03  5.6737e-04  0:03:24 1780

  iter  continuity  x-velocity  y-velocity  z-velocity      energy           k       omega     time/iter
   221  9.0264e-04  3.2919e-03  9.5314e-04  7.8162e-01  8.7234e-04  1.3366e-03  5.5692e-04  0:02:43 1779
   222  8.6871e-04  3.2297e-03  9.4500e-04  8.0320e-01  8.3759e-04  1.3087e-03  5.4666e-04  0:02:11 1778
   223  8.4859e-04  3.1643e-03  9.3564e-04  8.1944e-01  8.1730e-04  1.2822e-03  5.3857e-04  0:07:40 1777
   224  8.4087e-04  3.0959e-03  9.2499e-04  8.2843e-01  8.1005e-04  1.2593e-03  5.3119e-04  0:06:08 1776
   225  8.4349e-04  3.0252e-03  9.1307e-04  8.3169e-01  8.1367e-04  1.2425e-03  5.2537e-04  0:04:54 1775
   226  8.5405e-04  2.9538e-03  8.9997e-04  8.2885e-01  8.2562e-04  1.2240e-03  5.1748e-04  0:03:55 1774
   227  8.6995e-04  2.8834e-03  8.8581e-04  8.1923e-01  8.4317e-04  1.2053e-03  5.0698e-04  0:03:08 1773
   228  8.8879e-04  2.8155e-03  8.7076e-04  8.0407e-01  8.6378e-04  1.1916e-03  4.9446e-04  0:02:30 1772
   229  9.0855e-04  2.7510e-03  8.5494e-04  7.8271e-01  8.8532e-04  1.1814e-03  4.8227e-04  0:02:00 1771
   230  9.2755e-04  2.6910e-03  8.3843e-04  7.5469e-01  9.0606e-04  1.1699e-03  4.7218e-04  0:01:36 1770
   231  9.4452e-04  2.6356e-03  8.2147e-04  7.2071e-01  9.2467e-04  1.1602e-03  4.6212e-04  0:01:17 1769

  iter  continuity  x-velocity  y-velocity  z-velocity      energy           k       omega     time/iter
   232  9.5854e-04  2.5848e-03  8.0422e-04  6.8026e-01  9.4020e-04  1.1554e-03  4.5366e-04  0:01:01 1768
   233  9.6901e-04  2.5387e-03  7.8682e-04  6.3410e-01  9.5209e-04  1.1521e-03  4.4587e-04  0:06:42 1767
   234  9.7566e-04  2.4974e-03  7.6925e-04  5.8262e-01  9.6003e-04  1.1519e-03  4.3820e-04  0:05:22 1766
   235  9.7824e-04  2.4601e-03  7.5158e-04  5.2702e-01  9.6380e-04  1.1533e-03  4.3049e-04  0:04:17 1765
   236  9.7670e-04  2.4263e-03  7.3384e-04  4.6953e-01  9.6336e-04  1.1534e-03  4.2246e-04  0:03:26 1764
   237  9.7136e-04  2.3961e-03  7.1619e-04  4.1232e-01  9.5904e-04  1.1536e-03  4.1417e-04  0:02:44 1763
   238  9.6250e-04  2.3692e-03  6.9864e-04  3.5852e-01  9.5113e-04  1.1535e-03  4.0694e-04  0:02:12 1762
   239  9.5043e-04  2.3458e-03  6.8105e-04  3.1226e-01  9.3995e-04  1.1534e-03  4.0106e-04  0:01:45 1761
   240  9.3552e-04  2.3255e-03  6.6342e-04  2.8004e-01  9.2590e-04  1.1536e-03  3.9644e-04  0:01:24 1760
   241  9.1821e-04  2.3084e-03  6.4573e-04  2.6955e-01  9.0939e-04  1.1520e-03  3.9232e-04  0:01:07 1759
   242  8.9894e-04  2.2943e-03  6.2797e-04  2.8366e-01  8.9089e-04  1.1499e-03  3.8773e-04  0:06:45 1758

  iter  continuity  x-velocity  y-velocity  z-velocity      energy           k       omega     time/iter
   243  8.7818e-04  2.2831e-03  6.1023e-04  3.1748e-01  8.7086e-04  1.1483e-03  3.8486e-04  0:05:24 1757
   244  8.5639e-04  2.2748e-03  5.9244e-04  3.6393e-01  8.4976e-04  1.1449e-03  3.8074e-04  0:04:19 1756
   245  8.3396e-04  2.2693e-03  5.7457e-04  4.1917e-01  8.2801e-04  1.1395e-03  3.7879e-04  0:03:27 1755
   246  8.1134e-04  2.2663e-03  5.5666e-04  4.7879e-01  8.0604e-04  1.1334e-03  3.7354e-04  0:02:46 1754
   247  7.8895e-04  2.2656e-03  5.3876e-04  5.3832e-01  7.8428e-04  1.1269e-03  3.6795e-04  0:02:12 1753
   248  7.6715e-04  2.2670e-03  5.2091e-04  5.9668e-01  7.6308e-04  1.1207e-03  3.6557e-04  0:01:46 1752
   249  7.4622e-04  2.2702e-03  5.0325e-04  6.5293e-01  7.4273e-04  1.1148e-03  3.6359e-04  0:01:25 1751
   250  7.2638e-04  2.2750e-03  4.8593e-04  7.0631e-01  7.2343e-04  1.1088e-03  3.6119e-04  0:01:08 1750
   251  7.0777e-04  2.2810e-03  4.6904e-04  7.5622e-01  7.0533e-04  1.1005e-03  3.5883e-04  0:00:54 1749
   252  6.9051e-04  2.2881e-03  4.5276e-04  8.0194e-01  6.8855e-04  1.0923e-03  3.5771e-04  0:06:33 1748
   253  6.7465e-04  2.2960e-03  4.3729e-04  8.4245e-01  6.7313e-04  1.0832e-03  3.5590e-04  0:05:14 1747

  iter  continuity  x-velocity  y-velocity  z-velocity      energy           k       omega     time/iter
   254  6.6011e-04  2.3042e-03  4.2284e-04  8.7836e-01  6.5901e-04  1.0719e-03  3.5451e-04  0:04:11 1746
   255  6.4679e-04  2.3125e-03  4.0961e-04  9.0621e-01  6.4606e-04  1.0589e-03  3.5370e-04  0:03:21 1745
   256  6.3451e-04  2.3206e-03  3.9785e-04  9.3152e-01  6.3413e-04  1.0476e-03  3.5328e-04  0:02:41 1744
   257  6.2310e-04  2.3282e-03  3.8776e-04  9.4948e-01  6.2303e-04  1.0358e-03  3.5031e-04  0:02:08 1743
   258  6.1233e-04  2.3351e-03  3.7950e-04  9.6200e-01  6.1255e-04  1.0238e-03  3.4684e-04  0:01:43 1742
   259  6.0201e-04  2.3410e-03  3.7317e-04  9.6714e-01  6.0249e-04  1.0116e-03  3.4385e-04  0:01:22 1741
   260  5.9193e-04  2.3458e-03  3.6885e-04  9.6423e-01  5.9264e-04  9.9719e-04  3.4051e-04  0:01:06 1740
   261  5.8188e-04  2.3492e-03  3.6652e-04  9.5554e-01  5.8282e-04  9.8307e-04  3.3783e-04  0:00:52 1739
   262  5.7170e-04  2.3510e-03  3.6609e-04  9.4065e-01  5.7285e-04  9.6946e-04  3.3420e-04  0:00:42 1738
   263  5.6125e-04  2.3512e-03  3.6738e-04  9.1771e-01  5.6261e-04  9.5599e-04  3.2971e-04  0:06:21 1737
   264  5.5043e-04  2.3497e-03  3.7011e-04  8.8693e-01  5.5199e-04  9.4196e-04  3.2594e-04  0:05:05 1736

  iter  continuity  x-velocity  y-velocity  z-velocity      energy           k       omega     time/iter
   265  5.3917e-04  2.3464e-03  3.7402e-04  8.5244e-01  5.4095e-04  9.2775e-04  3.2241e-04  0:04:04 1735
   266  5.2744e-04  2.3413e-03  3.7880e-04  8.1157e-01  5.2944e-04  9.1373e-04  3.1823e-04  0:03:15 1734
   267  5.1529e-04  2.3344e-03  3.8413e-04  7.6641e-01  5.1752e-04  8.9976e-04  3.1408e-04  0:02:36 1733
   268  5.0276e-04  2.3255e-03  3.8971e-04  7.1729e-01  5.0523e-04  8.8732e-04  3.0936e-04  0:02:04 1732
   269  4.8993e-04  2.3148e-03  3.9523e-04  6.6595e-01  4.9264e-04  8.7329e-04  3.0365e-04  0:01:40 1731
   270  4.7692e-04  2.3023e-03  4.0042e-04  6.1307e-01  4.7989e-04  8.5986e-04  2.9864e-04  0:01:20 1730
   271  4.6391e-04  2.2880e-03  4.0503e-04  5.5825e-01  4.6716e-04  8.4645e-04  2.9410e-04  0:01:04 1729
   272  4.5113e-04  2.2720e-03  4.0884e-04  5.0185e-01  4.5464e-04  8.3291e-04  2.9043e-04  0:06:36 1728
   273  4.3862e-04  2.2543e-03  4.1166e-04  4.4626e-01  4.4239e-04  8.1953e-04  2.8728e-04  0:05:17 1727
   274  4.2677e-04  2.2352e-03  4.1331e-04  3.9194e-01  4.3077e-04  8.0607e-04  2.8401e-04  0:04:13 1726
   275  4.1583e-04  2.2145e-03  4.1365e-04  3.3963e-01  4.2003e-04  7.9187e-04  2.8070e-04  0:03:23 1725

  iter  continuity  x-velocity  y-velocity  z-velocity      energy           k       omega     time/iter
   276  4.0600e-04  2.1924e-03  4.1268e-04  2.9006e-01  4.1032e-04  7.7689e-04  2.7742e-04  0:02:42 1724
   277  3.9743e-04  2.1691e-03  4.1033e-04  2.4622e-01  4.0182e-04  7.6194e-04  2.7314e-04  0:02:10 1723
   278  3.9026e-04  2.1444e-03  4.0654e-04  2.1197e-01  3.9462e-04  7.4784e-04  2.6937e-04  0:01:44 1722
   279  3.8455e-04  2.1186e-03  4.0132e-04  1.8993e-01  3.8878e-04  7.3385e-04  2.6522e-04  0:01:23 1721
   280  3.8035e-04  2.0917e-03  3.9469e-04  1.8182e-01  3.8433e-04  7.1974e-04  2.6121e-04  0:01:06 1720
   281  3.7767e-04  2.0638e-03  3.8672e-04  1.8696e-01  3.8127e-04  7.0669e-04  2.5737e-04  0:06:37 1719
   282  3.7641e-04  2.0351e-03  3.7745e-04  2.0203e-01  3.7952e-04  6.9378e-04  2.5317e-04  0:05:17 1718
   283  3.7638e-04  2.0057e-03  3.6700e-04  2.2200e-01  3.7889e-04  6.8184e-04  2.4883e-04  0:04:14 1717
   284  3.7740e-04  1.9757e-03  3.5546e-04  2.4498e-01  3.7920e-04  6.7092e-04  2.4466e-04  0:03:23 1716
   285  3.7919e-04  1.9450e-03  3.4295e-04  2.6901e-01  3.8019e-04  6.5989e-04  2.4088e-04  0:02:42 1715
   286  3.8145e-04  1.9139e-03  3.2963e-04  2.9216e-01  3.8157e-04  6.4925e-04  2.3686e-04  0:02:10 1714

  iter  continuity  x-velocity  y-velocity  z-velocity      energy           k       omega     time/iter
   287  3.8393e-04  1.8825e-03  3.1567e-04  3.1334e-01  3.8312e-04  6.3956e-04  2.3310e-04  0:01:44 1713
   288  3.8639e-04  1.8509e-03  3.0122e-04  3.3252e-01  3.8460e-04  6.3033e-04  2.2932e-04  0:01:23 1712
   289  3.8863e-04  1.8192e-03  2.8651e-04  3.5018e-01  3.8583e-04  6.2156e-04  2.2579e-04  0:01:06 1711
   290  3.9044e-04  1.7876e-03  2.7175e-04  3.6527e-01  3.8662e-04  6.1284e-04  2.2239e-04  0:00:53 1710
   291  3.9165e-04  1.7564e-03  2.5714e-04  3.7769e-01  3.8679e-04  6.0464e-04  2.1917e-04  0:06:24 1709
   292  3.9213e-04  1.7257e-03  2.4291e-04  3.8763e-01  3.8626e-04  5.9792e-04  2.1653e-04  0:05:07 1708
   293  3.9180e-04  1.6956e-03  2.2930e-04  3.9471e-01  3.8493e-04  5.9123e-04  2.1403e-04  0:04:06 1707
   294  3.9058e-04  1.6664e-03  2.1654e-04  3.9976e-01  3.8274e-04  5.8503e-04  2.1249e-04  0:03:16 1706
   295  3.8842e-04  1.6382e-03  2.0493e-04  4.0265e-01  3.7965e-04  5.7998e-04  2.1120e-04  0:02:37 1705
   296  3.8533e-04  1.6113e-03  1.9468e-04  4.0323e-01  3.7568e-04  5.7547e-04  2.1012e-04  0:02:06 1704
   297  3.8127e-04  1.5858e-03  1.8605e-04  4.0111e-01  3.7082e-04  5.7201e-04  2.0960e-04  0:01:40 1703

  iter  continuity  x-velocity  y-velocity  z-velocity      energy           k       omega     time/iter
   298  3.7614e-04  1.5619e-03  1.7921e-04  3.9610e-01  3.6494e-04  5.6906e-04  2.0904e-04  0:01:20 1702
   299  3.7019e-04  1.5400e-03  1.7425e-04  3.8843e-01  3.5832e-04  5.6679e-04  2.0839e-04  0:01:04 1701
   300  3.6345e-04  1.5199e-03  1.7111e-04  3.7791e-01  3.5100e-04  5.6492e-04  2.0800e-04  0:00:51 1700
   301  3.5601e-04  1.5017e-03  1.6972e-04  3.6474e-01  3.4306e-04  5.6377e-04  2.0755e-04  0:06:21 1699
   302  3.4802e-04  1.4857e-03  1.6987e-04  3.4934e-01  3.3467e-04  5.6333e-04  2.0721e-04  0:05:04 1698
   303  3.3959e-04  1.4718e-03  1.7127e-04  3.3185e-01  3.2593e-04  5.6341e-04  2.0650e-04  0:04:03 1697
   304  3.3113e-04  1.4600e-03  1.7381e-04  3.1276e-01  3.1726e-04  5.6399e-04  2.0528e-04  0:03:15 1696
   305  3.2272e-04  1.4504e-03  1.7723e-04  2.9210e-01  3.0875e-04  5.6475e-04  2.0410e-04  0:02:36 1695
   306  3.1459e-04  1.4429e-03  1.8127e-04  2.6985e-01  3.0065e-04  5.6566e-04  2.0379e-04  0:02:04 1694
   307  3.0700e-04  1.4375e-03  1.8566e-04  2.4679e-01  2.9319e-04  5.6666e-04  2.0362e-04  0:01:39 1693
   308  3.0019e-04  1.4340e-03  1.9017e-04  2.2299e-01  2.8662e-04  5.6785e-04  2.0364e-04  0:01:20 1692

  iter  continuity  x-velocity  y-velocity  z-velocity      energy           k       omega     time/iter
   309  2.9441e-04  1.4323e-03  1.9480e-04  1.9986e-01  2.8119e-04  5.6925e-04  2.0372e-04  0:01:04 1691
   310  2.8986e-04  1.4320e-03  1.9952e-04  1.7708e-01  2.7706e-04  5.7124e-04  2.0357e-04  0:06:29 1690
   311  2.8674e-04  1.4331e-03  2.0442e-04  1.5559e-01  2.7440e-04  5.7365e-04  2.0359e-04  0:05:11 1689
   312  2.8486e-04  1.4351e-03  2.0938e-04  1.3594e-01  2.7300e-04  5.7653e-04  2.0379e-04  0:04:09 1688
   313  2.8471e-04  1.4379e-03  2.1431e-04  1.1919e-01  2.7333e-04  5.7942e-04  2.0394e-04  0:03:19 1687
   314  2.8621e-04  1.4414e-03  2.1942e-04  1.0694e-01  2.7525e-04  5.8229e-04  2.0423e-04  0:02:39 1686
   315  2.8918e-04  1.4454e-03  2.2498e-04  1.0111e-01  2.7857e-04  5.8524e-04  2.0437e-04  0:02:07 1685
   316  2.9354e-04  1.4496e-03  2.3101e-04  1.0270e-01  2.8317e-04  5.8816e-04  2.0444e-04  0:01:42 1684
   317  2.9910e-04  1.4539e-03  2.3742e-04  1.1087e-01  2.8885e-04  5.9107e-04  2.0464e-04  0:01:21 1683
   318  3.0573e-04  1.4579e-03  2.4451e-04  1.2339e-01  2.9546e-04  5.9354e-04  2.0480e-04  0:01:05 1682
   319  3.1310e-04  1.4617e-03  2.5244e-04  1.3844e-01  3.0266e-04  5.9583e-04  2.0480e-04  0:00:52 1681

  iter  continuity  x-velocity  y-velocity  z-velocity      energy           k       omega     time/iter
   320  3.2111e-04  1.4650e-03  2.6118e-04  1.5445e-01  3.1036e-04  5.9853e-04  2.0466e-04  0:06:18 1680
   321  3.2947e-04  1.4678e-03  2.7079e-04  1.7057e-01  3.1826e-04  6.0113e-04  2.0448e-04  0:05:02 1679
   322  3.3805e-04  1.4700e-03  2.8137e-04  1.8616e-01  3.2624e-04  6.0373e-04  2.0446e-04  0:04:01 1678
   323  3.4663e-04  1.4714e-03  2.9274e-04  2.0100e-01  3.3410e-04  6.0614e-04  2.0448e-04  0:03:13 1677
   324  3.5509e-04  1.4721e-03  3.0510e-04  2.1469e-01  3.4173e-04  6.0851e-04  2.0443e-04  0:02:34 1676
   325  3.6326e-04  1.4719e-03  3.1835e-04  2.2726e-01  3.4896e-04  6.1102e-04  2.0451e-04  0:02:03 1675
   326  3.7099e-04  1.4710e-03  3.3238e-04  2.3827e-01  3.5567e-04  6.1361e-04  2.0437e-04  0:01:39 1674
   327  3.7820e-04  1.4692e-03  3.4711e-04  2.4757e-01  3.6177e-04  6.1566e-04  2.0392e-04  0:01:19 1673
   328  3.8483e-04  1.4667e-03  3.6244e-04  2.5534e-01  3.6723e-04  6.1684e-04  2.0346e-04  0:01:03 1672
   329  3.9082e-04  1.4634e-03  3.7822e-04  2.6143e-01  3.7199e-04  6.1773e-04  2.0298e-04  0:06:25 1671
   330  3.9611e-04  1.4594e-03  3.9436e-04  2.6569e-01  3.7601e-04  6.1838e-04  2.0220e-04  0:05:07 1670

  iter  continuity  x-velocity  y-velocity  z-velocity      energy           k       omega     time/iter
   331  4.0038e-04  1.4545e-03  4.1076e-04  2.6809e-01  3.7893e-04  6.1903e-04  2.0138e-04  0:04:06 1669
   332  4.0406e-04  1.4489e-03  4.2733e-04  2.6860e-01  3.8127e-04  6.1927e-04  2.0099e-04  0:03:17 1668
   333  4.0705e-04  1.4429e-03  4.4392e-04  2.6746e-01  3.8291e-04  6.1913e-04  2.0085e-04  0:02:37 1667
   334  4.0936e-04  1.4365e-03  4.6041e-04  2.6476e-01  3.8388e-04  6.1887e-04  2.0080e-04  0:02:06 1666
   335  4.1101e-04  1.4299e-03  4.7670e-04  2.6052e-01  3.8422e-04  6.1828e-04  2.0079e-04  0:01:40 1665
   336  4.1203e-04  1.4230e-03  4.9268e-04  2.5484e-01  3.8396e-04  6.1729e-04  2.0091e-04  0:01:20 1664
   337  4.1243e-04  1.4158e-03  5.0827e-04  2.4763e-01  3.8310e-04  6.1590e-04  2.0111e-04  0:01:04 1663
   338  4.1225e-04  1.4085e-03  5.2340e-04  2.3919e-01  3.8171e-04  6.1449e-04  2.0117e-04  0:06:24 1662
   339  4.1154e-04  1.4012e-03  5.3799e-04  2.2962e-01  3.7988e-04  6.1289e-04  2.0063e-04  0:05:07 1661
   340  4.1042e-04  1.3939e-03  5.5196e-04  2.1880e-01  3.7771e-04  6.1087e-04  1.9981e-04  0:04:05 1660
   341  4.0890e-04  1.3867e-03  5.6524e-04  2.0695e-01  3.7523e-04  6.0831e-04  1.9920e-04  0:03:16 1659

  iter  continuity  x-velocity  y-velocity  z-velocity      energy           k       omega     time/iter
   342  4.0690e-04  1.3796e-03  5.7775e-04  1.9410e-01  3.7235e-04  6.0481e-04  1.9899e-04  0:02:37 1658
   343  4.0449e-04  1.3726e-03  5.8945e-04  1.8049e-01  3.6915e-04  6.0057e-04  1.9918e-04  0:02:05 1657
   344  4.0175e-04  1.3658e-03  6.0031e-04  1.6629e-01  3.6573e-04  5.9650e-04  1.9924e-04  0:01:40 1656
   345  3.9871e-04  1.3591e-03  6.1029e-04  1.5181e-01  3.6213e-04  5.9217e-04  1.9875e-04  0:01:20 1655
   346  3.9546e-04  1.3525e-03  6.1937e-04  1.3678e-01  3.5842e-04  5.8775e-04  1.9740e-04  0:06:35 1654
   347  3.9206e-04  1.3461e-03  6.2751e-04  1.2232e-01  3.5470e-04  5.8274e-04  1.9646e-04  0:05:16 1653
   348  3.8854e-04  1.3398e-03  6.3471e-04  1.0838e-01  3.5099e-04  5.7751e-04  1.9550e-04  0:04:12 1652
   349  3.8486e-04  1.3336e-03  6.4095e-04  9.5093e-02  3.4724e-04  5.7240e-04  1.9417e-04  0:03:22 1651
   350  3.8104e-04  1.3273e-03  6.4620e-04  8.2962e-02  3.4347e-04  5.6700e-04  1.9288e-04  0:02:41 1650
   351  3.7724e-04  1.3212e-03  6.5049e-04  7.2841e-02  3.3985e-04  5.6175e-04  1.9136e-04  0:02:09 1649
   352  3.7346e-04  1.3151e-03  6.5380e-04  6.4916e-02  3.3637e-04  5.5660e-04  1.8960e-04  0:01:43 1648

  iter  continuity  x-velocity  y-velocity  z-velocity      energy           k       omega     time/iter
   353  3.6980e-04  1.3089e-03  6.5614e-04  6.0165e-02  3.3313e-04  5.5163e-04  1.8790e-04  0:01:22 1647
   354  3.6620e-04  1.3027e-03  6.5751e-04  5.9600e-02  3.3005e-04  5.4671e-04  1.8625e-04  0:01:06 1646
   355  3.6270e-04  1.2964e-03  6.5796e-04  6.2910e-02  3.2717e-04  5.4181e-04  1.8471e-04  0:06:22 1645
   356  3.5928e-04  1.2901e-03  6.5749e-04  6.9271e-02  3.2447e-04  5.3702e-04  1.8299e-04  0:05:05 1644
   357  3.5592e-04  1.2836e-03  6.5616e-04  7.7637e-02  3.2189e-04  5.3238e-04  1.8139e-04  0:04:04 1643
   358  3.5268e-04  1.2769e-03  6.5400e-04  8.7332e-02  3.1950e-04  5.2789e-04  1.7982e-04  0:03:15 1642
   359  3.4956e-04  1.2700e-03  6.5106e-04  9.7803e-02  3.1727e-04  5.2354e-04  1.7828e-04  0:02:36 1641
   360  3.4655e-04  1.2628e-03  6.4739e-04  1.0847e-01  3.1518e-04  5.1921e-04  1.7686e-04  0:02:05 1640
   361  3.4366e-04  1.2554e-03  6.4304e-04  1.1896e-01  3.1323e-04  5.1495e-04  1.7547e-04  0:01:40 1639
   362  3.4088e-04  1.2476e-03  6.3806e-04  1.2910e-01  3.1139e-04  5.1077e-04  1.7356e-04  0:01:20 1638
   363  3.3819e-04  1.2396e-03  6.3251e-04  1.3861e-01  3.0964e-04  5.0641e-04  1.7203e-04  0:01:04 1637

  iter  continuity  x-velocity  y-velocity  z-velocity      energy           k       omega     time/iter
   364  3.3554e-04  1.2313e-03  6.2645e-04  1.4749e-01  3.0788e-04  5.0157e-04  1.7059e-04  0:06:18 1636
   365  3.3297e-04  1.2226e-03  6.1996e-04  1.5554e-01  3.0617e-04  4.9672e-04  1.6922e-04  0:05:02 1635
   366  3.3048e-04  1.2136e-03  6.1309e-04  1.6282e-01  3.0448e-04  4.9231e-04  1.6758e-04  0:04:02 1634
   367  3.2790e-04  1.2041e-03  6.0592e-04  1.6925e-01  3.0263e-04  4.8770e-04  1.6618e-04  0:03:13 1633
   368  3.2516e-04  1.1943e-03  5.9853e-04  1.7492e-01  3.0054e-04  4.8272e-04  1.6510e-04  0:02:35 1632
   369  3.2233e-04  1.1843e-03  5.9091e-04  1.7974e-01  2.9825e-04  4.7767e-04  1.6395e-04  0:02:04 1631
   370  3.1934e-04  1.1740e-03  5.8324e-04  1.8383e-01  2.9571e-04  4.7248e-04  1.6314e-04  0:01:39 1630
   371  3.1625e-04  1.1634e-03  5.7565e-04  1.8712e-01  2.9297e-04  4.6756e-04  1.6238e-04  0:01:19 1629
   372  3.1313e-04  1.1525e-03  5.6820e-04  1.8960e-01  2.9008e-04  4.6286e-04  1.6158e-04  0:01:03 1628
   373  3.0998e-04  1.1414e-03  5.6094e-04  1.9163e-01  2.8706e-04  4.5832e-04  1.6071e-04  0:06:16 1627
   374  3.0683e-04  1.1300e-03  5.5395e-04  1.9277e-01  2.8391e-04  4.5372e-04  1.5979e-04  0:05:01 1626

  iter  continuity  x-velocity  y-velocity  z-velocity      energy           k       omega     time/iter
   375  3.0375e-04  1.1186e-03  5.4730e-04  1.9316e-01  2.8074e-04  4.4928e-04  1.5890e-04  0:04:00 1625
   376  3.0078e-04  1.1072e-03  5.4107e-04  1.9284e-01  2.7755e-04  4.4509e-04  1.5787e-04  0:03:12 1624
   377  2.9783e-04  1.0958e-03  5.3534e-04  1.9185e-01  2.7427e-04  4.4096e-04  1.5687e-04  0:02:34 1623
   378  2.9510e-04  1.0845e-03  5.3020e-04  1.9030e-01  2.7108e-04  4.3676e-04  1.5594e-04  0:02:03 1622
   379  2.9287e-04  1.0732e-03  5.2571e-04  1.8825e-01  2.6830e-04  4.3269e-04  1.5502e-04  0:01:38 1621
   380  2.9112e-04  1.0622e-03  5.2196e-04  1.8570e-01  2.6590e-04  4.2884e-04  1.5405e-04  0:01:18 1620
   381  2.8984e-04  1.0513e-03  5.1900e-04  1.8272e-01  2.6388e-04  4.2514e-04  1.5298e-04  0:01:03 1619
   382  2.8904e-04  1.0406e-03  5.1688e-04  1.7928e-01  2.6224e-04  4.2150e-04  1.5186e-04  0:06:14 1618
   383  2.8880e-04  1.0302e-03  5.1564e-04  1.7548e-01  2.6108e-04  4.1780e-04  1.5072e-04  0:04:59 1617
   384  2.8921e-04  1.0198e-03  5.1534e-04  1.7135e-01  2.6050e-04  4.1380e-04  1.4971e-04  0:03:59 1616
   385  2.9029e-04  1.0099e-03  5.1597e-04  1.6702e-01  2.6055e-04  4.0952e-04  1.4853e-04  0:03:11 1615

  iter  continuity  x-velocity  y-velocity  z-velocity      energy           k       omega     time/iter
   386  2.9207e-04  1.0003e-03  5.1757e-04  1.6248e-01  2.6124e-04  4.0511e-04  1.4720e-04  0:02:33 1614
   387  2.9457e-04  9.9097e-04  5.2013e-04  1.5771e-01  2.6263e-04  4.0086e-04  1.4619e-04  0:02:02 1613
   388  2.9783e-04  9.8200e-04  5.2367e-04  1.5280e-01  2.6477e-04  3.9682e-04  1.4547e-04  0:01:38 1612
   389  3.0182e-04  9.7333e-04  5.2815e-04  1.4776e-01  2.6765e-04  3.9290e-04  1.4445e-04  0:01:18 1611
   390  3.0650e-04  9.6499e-04  5.3353e-04  1.4265e-01  2.7121e-04  3.8938e-04  1.4370e-04  0:01:02 1610
   391  3.1182e-04  9.5692e-04  5.3980e-04  1.3749e-01  2.7542e-04  3.8628e-04  1.4282e-04  0:06:12 1609
   392  3.1768e-04  9.4906e-04  5.4693e-04  1.3232e-01  2.8021e-04  3.8338e-04  1.4214e-04  0:04:57 1608
   393  3.2402e-04  9.4146e-04  5.5486e-04  1.2718e-01  2.8550e-04  3.8061e-04  1.4135e-04  0:03:58 1607
   394  3.3073e-04  9.3411e-04  5.6350e-04  1.2223e-01  2.9117e-04  3.7803e-04  1.4052e-04  0:03:10 1606
   395  3.3769e-04  9.2699e-04  5.7281e-04  1.1744e-01  2.9713e-04  3.7580e-04  1.3952e-04  0:02:32 1605
   396  3.4483e-04  9.2006e-04  5.8268e-04  1.1281e-01  3.0328e-04  3.7359e-04  1.3856e-04  0:02:01 1604

  iter  continuity  x-velocity  y-velocity  z-velocity      energy           k       omega     time/iter
   397  3.5201e-04  9.1342e-04  5.9306e-04  1.0824e-01  3.0950e-04  3.7138e-04  1.3771e-04  0:01:37 1603
   398  3.5911e-04  9.0705e-04  6.0386e-04  1.0380e-01  3.1565e-04  3.6917e-04  1.3689e-04  0:01:18 1602
   399  3.6600e-04  9.0093e-04  6.1502e-04  9.9469e-02  3.2161e-04  3.6703e-04  1.3608e-04  0:01:02 1601
   400  3.7260e-04  8.9507e-04  6.2645e-04  9.5413e-02  3.2730e-04  3.6493e-04  1.3522e-04  0:06:10 1600
   401  3.7881e-04  8.8947e-04  6.3808e-04  9.1604e-02  3.3260e-04  3.6280e-04  1.3432e-04  0:04:56 1599
   402  3.8454e-04  8.8416e-04  6.4984e-04  8.7971e-02  3.3745e-04  3.6057e-04  1.3324e-04  0:03:56 1598
   403  3.8972e-04  8.7917e-04  6.6163e-04  8.4532e-02  3.4177e-04  3.5827e-04  1.3217e-04  0:03:09 1597
   404  3.9381e-04  8.7415e-04  6.7338e-04  8.1271e-02  3.4494e-04  3.5612e-04  1.3116e-04  0:02:31 1596
   405  3.9726e-04  8.6950e-04  6.8500e-04  7.8175e-02  3.4748e-04  3.5392e-04  1.3029e-04  0:02:01 1595
   406  4.0017e-04  8.6542e-04  6.9643e-04  7.5264e-02  3.4954e-04  3.5155e-04  1.2939e-04  0:01:37 1594
   407  4.0240e-04  8.6188e-04  7.0757e-04  7.2530e-02  3.5097e-04  3.4904e-04  1.2843e-04  0:01:17 1593

  iter  continuity  x-velocity  y-velocity  z-velocity      energy           k       omega     time/iter
   408  4.0389e-04  8.5886e-04  7.1835e-04  6.9994e-02  3.5168e-04  3.4632e-04  1.2753e-04  0:01:02 1592
   409  4.0462e-04  8.5641e-04  7.2871e-04  6.7627e-02  3.5168e-04  3.4342e-04  1.2647e-04  0:06:08 1591
   410  4.0458e-04  8.5453e-04  7.3858e-04  6.5344e-02  3.5096e-04  3.4030e-04  1.2546e-04  0:04:54 1590
   411  4.0379e-04  8.5321e-04  7.4790e-04  6.3249e-02  3.4951e-04  3.3720e-04  1.2453e-04  0:03:55 1589
   412  4.0222e-04  8.5242e-04  7.5661e-04  6.1350e-02  3.4733e-04  3.3417e-04  1.2360e-04  0:03:08 1588
   413  3.9991e-04  8.5216e-04  7.6466e-04  5.9650e-02  3.4446e-04  3.3099e-04  1.2260e-04  0:02:30 1587
   414  3.9690e-04  8.5245e-04  7.7200e-04  5.8128e-02  3.4093e-04  3.2771e-04  1.2163e-04  0:02:00 1586
   415  3.9320e-04  8.5322e-04  7.7860e-04  5.6788e-02  3.3676e-04  3.2418e-04  1.2064e-04  0:01:36 1585
   416  3.8891e-04  8.5448e-04  7.8441e-04  5.5649e-02  3.3207e-04  3.2056e-04  1.1966e-04  0:01:17 1584
   417  3.8416e-04  8.5614e-04  7.8939e-04  5.4668e-02  3.2698e-04  3.1704e-04  1.1874e-04  0:01:01 1583
   418  3.7893e-04  8.5811e-04  7.9353e-04  5.3822e-02  3.2148e-04  3.1333e-04  1.1796e-04  0:06:05 1582

  iter  continuity  x-velocity  y-velocity  z-velocity      energy           k       omega     time/iter
   419  3.7321e-04  8.6036e-04  7.9682e-04  5.3153e-02  3.1555e-04  3.0972e-04  1.1712e-04  0:04:52 1581
   420  3.6712e-04  8.6279e-04  7.9924e-04  5.2670e-02  3.0929e-04  3.0605e-04  1.1621e-04  0:03:54 1580
   421  3.6075e-04  8.6535e-04  8.0079e-04  5.2366e-02  3.0284e-04  3.0237e-04  1.1524e-04  0:03:07 1579
   422  3.5420e-04  8.6793e-04  8.0146e-04  5.2123e-02  2.9628e-04  2.9872e-04  1.1413e-04  0:02:29 1578
   423  3.4755e-04  8.7042e-04  8.0127e-04  5.1985e-02  2.8970e-04  2.9520e-04  1.1302e-04  0:01:59 1577
   424  3.4086e-04  8.7275e-04  8.0022e-04  5.1966e-02  2.8316e-04  2.9178e-04  1.1189e-04  0:06:51 1576
   425  3.3421e-04  8.7481e-04  7.9833e-04  5.2071e-02  2.7674e-04  2.8842e-04  1.1080e-04  0:05:28 1575
   426  3.2765e-04  8.7654e-04  7.9563e-04  5.2280e-02  2.7049e-04  2.8507e-04  1.0966e-04  0:04:22 1574
   427  3.2125e-04  8.7785e-04  7.9215e-04  5.2583e-02  2.6447e-04  2.8178e-04  1.0858e-04  0:03:30 1573
   428  3.1506e-04  8.7867e-04  7.8791e-04  5.2988e-02  2.5873e-04  2.7857e-04  1.0750e-04  0:02:48 1572
   429  3.0912e-04  8.7892e-04  7.8296e-04  5.3484e-02  2.5330e-04  2.7536e-04  1.0614e-04  0:02:14 1571

  iter  continuity  x-velocity  y-velocity  z-velocity      energy           k       omega     time/iter
   430  3.0346e-04  8.7853e-04  7.7737e-04  5.4057e-02  2.4821e-04  2.7206e-04  1.0466e-04  0:01:47 1570
   431  2.9812e-04  8.7745e-04  7.7117e-04  5.4708e-02  2.4347e-04  2.6859e-04  1.0339e-04  0:01:26 1569
   432  2.9311e-04  8.7565e-04  7.6444e-04  5.5431e-02  2.3912e-04  2.6513e-04  1.0218e-04  0:06:22 1568
   433  2.8845e-04  8.7311e-04  7.5723e-04  5.6189e-02  2.3513e-04  2.6182e-04  1.0103e-04  0:05:06 1567
   434  2.8414e-04  8.6981e-04  7.4961e-04  5.6976e-02  2.3151e-04  2.5865e-04  9.9900e-05  0:04:04 1566
   435  2.8019e-04  8.6574e-04  7.4165e-04  5.7830e-02  2.2824e-04  2.5555e-04  9.8629e-05  0:03:15 1565
   436  2.7661e-04  8.6091e-04  7.3343e-04  5.8699e-02  2.2532e-04  2.5263e-04  9.7392e-05  0:02:36 1564
   437  2.7339e-04  8.5534e-04  7.2501e-04  5.9597e-02  2.2275e-04  2.4983e-04  9.6136e-05  0:02:05 1563
   438  2.7047e-04  8.4906e-04  7.1646e-04  6.0542e-02  2.2043e-04  2.4720e-04  9.4794e-05  0:01:40 1562
   439  2.6785e-04  8.4307e-04  7.0775e-04  6.1543e-02  2.1836e-04  2.4470e-04  9.3474e-05  0:01:20 1561
   440  2.6561e-04  8.3392e-04  6.9938e-04  6.2553e-02  2.1658e-04  2.4226e-04  9.2143e-05  0:01:04 1560

  iter  continuity  x-velocity  y-velocity  z-velocity      energy           k       omega     time/iter
   441  2.6362e-04  8.2572e-04  6.9083e-04  6.3558e-02  2.1501e-04  2.3985e-04  9.0855e-05  0:06:03 1559
   442  2.6191e-04  8.1730e-04  6.8242e-04  6.4498e-02  2.1366e-04  2.3724e-04  8.9740e-05  0:04:50 1558
   443  2.6049e-04  8.0836e-04  6.7428e-04  6.5413e-02  2.1254e-04  2.3437e-04  8.8697e-05  0:03:52 1557
   444  2.5938e-04  7.9889e-04  6.6644e-04  6.6267e-02  2.1165e-04  2.3146e-04  8.7666e-05  0:03:05 1556
   445  2.5857e-04  7.8900e-04  6.5896e-04  6.7059e-02  2.1101e-04  2.2856e-04  8.6611e-05  0:02:28 1555
   446  2.5806e-04  7.7880e-04  6.5186e-04  6.7830e-02  2.1060e-04  2.2521e-04  8.5568e-05  0:01:58 1554
   447  2.5783e-04  7.6839e-04  6.4519e-04  6.8537e-02  2.1042e-04  2.2169e-04  8.4623e-05  0:01:35 1553
   448  2.5788e-04  7.5787e-04  6.3900e-04  6.9851e-02  2.1046e-04  2.1845e-04  8.3742e-05  0:01:16 1552
   449  2.5821e-04  7.4730e-04  6.3333e-04  7.1202e-02  2.1073e-04  2.1532e-04  8.2909e-05  0:01:01 1551
   450  2.5881e-04  7.3677e-04  6.2823e-04  7.2318e-02  2.1123e-04  2.1214e-04  8.2033e-05  0:05:58 1550
   451  2.5968e-04  7.2633e-04  6.2371e-04  7.3158e-02  2.1196e-04  2.0899e-04  8.1214e-05  0:04:47 1549

  iter  continuity  x-velocity  y-velocity  z-velocity      energy           k       omega     time/iter
   452  2.6081e-04  7.1604e-04  6.1979e-04  7.3665e-02  2.1293e-04  2.0591e-04  8.0452e-05  0:03:49 1548
   453  2.6219e-04  7.0598e-04  6.1650e-04  7.3924e-02  2.1413e-04  2.0289e-04  7.9629e-05  0:03:03 1547
   454  2.6381e-04  6.9617e-04  6.1382e-04  7.4009e-02  2.1555e-04  1.9997e-04  7.8706e-05  0:02:26 1546
   455  2.6561e-04  6.8666e-04  6.1174e-04  7.3945e-02  2.1715e-04  1.9727e-04  7.7871e-05  0:01:57 1545
   456  2.6759e-04  6.7748e-04  6.1027e-04  7.3784e-02  2.1891e-04  1.9471e-04  7.7059e-05  0:01:34 1544
   457  2.6975e-04  6.6870e-04  6.0937e-04  7.3552e-02  2.2086e-04  1.9226e-04  7.6309e-05  0:01:15 1543
   458  2.7205e-04  6.6034e-04  6.0902e-04  7.3231e-02  2.2295e-04  1.8988e-04  7.5582e-05  0:01:00 1542
   459  2.7445e-04  6.5243e-04  6.0919e-04  7.2813e-02  2.2514e-04  1.8755e-04  7.4908e-05  0:05:56 1541
   460  2.7690e-04  6.4499e-04  6.0984e-04  7.2301e-02  2.2738e-04  1.8526e-04  7.4145e-05  0:04:45 1540
   461  2.7937e-04  6.3803e-04  6.1094e-04  7.1698e-02  2.2965e-04  1.8300e-04  7.3358e-05  0:03:48 1539
   462  2.8182e-04  6.3156e-04  6.1243e-04  7.1021e-02  2.3190e-04  1.8075e-04  7.2647e-05  0:03:02 1538

  iter  continuity  x-velocity  y-velocity  z-velocity      energy           k       omega     time/iter
   463  2.8421e-04  6.2557e-04  6.1427e-04  7.0286e-02  2.3409e-04  1.7846e-04  7.1960e-05  0:02:25 1537
   464  2.8649e-04  6.2009e-04  6.1642e-04  6.9506e-02  2.3618e-04  1.7616e-04  7.1243e-05  0:01:56 1536
   465  2.8864e-04  6.1513e-04  6.1882e-04  6.8673e-02  2.3814e-04  1.7388e-04  7.0503e-05  0:01:33 1535
   466  2.9061e-04  6.1069e-04  6.2143e-04  6.7815e-02  2.3993e-04  1.7167e-04  6.9709e-05  0:01:14 1534
   467  2.9238e-04  6.0676e-04  6.2419e-04  6.6944e-02  2.4152e-04  1.6945e-04  6.8934e-05  0:00:59 1533
   468  2.9392e-04  6.0334e-04  6.2706e-04  6.6072e-02  2.4287e-04  1.6726e-04  6.8283e-05  0:05:54 1532
   469  2.9517e-04  6.0030e-04  6.3004e-04  6.5198e-02  2.4395e-04  1.6512e-04  6.7694e-05  0:04:43 1531
   470  2.9615e-04  5.9784e-04  6.3304e-04  6.4365e-02  2.4478e-04  1.6299e-04  6.7072e-05  0:03:46 1530
   471  2.9686e-04  5.9590e-04  6.3597e-04  6.3575e-02  2.4533e-04  1.6088e-04  6.6435e-05  0:03:01 1529
   472  2.9727e-04  5.9448e-04  6.3878e-04  6.2811e-02  2.4559e-04  1.5880e-04  6.5784e-05  0:02:25 1528
   473  2.9737e-04  5.9357e-04  6.4145e-04  6.2077e-02  2.4556e-04  1.5672e-04  6.5144e-05  0:01:56 1527

  iter  continuity  x-velocity  y-velocity  z-velocity      energy           k       omega     time/iter
   474  2.9714e-04  5.9314e-04  6.4393e-04  6.1358e-02  2.4520e-04  1.5467e-04  6.4500e-05  0:01:32 1526
   475  2.9659e-04  5.9315e-04  6.4620e-04  6.0632e-02  2.4452e-04  1.5263e-04  6.3842e-05  0:01:14 1525
   476  2.9572e-04  5.9359e-04  6.4823e-04  5.9893e-02  2.4354e-04  1.5060e-04  6.3163e-05  0:06:04 1524
   477  2.9454e-04  5.9442e-04  6.5000e-04  5.9141e-02  2.4226e-04  1.4856e-04  6.2435e-05  0:04:51 1523
   478  2.9307e-04  5.9559e-04  6.5149e-04  5.8374e-02  2.4071e-04  1.4652e-04  6.1729e-05  0:03:53 1522
   479  2.9133e-04  5.9708e-04  6.5267e-04  5.7585e-02  2.3891e-04  1.4450e-04  6.0994e-05  0:03:06 1521
   480  2.8934e-04  5.9885e-04  6.5352e-04  5.6780e-02  2.3688e-04  1.4250e-04  6.0273e-05  0:02:29 1520
   481  2.8712e-04  6.0083e-04  6.5403e-04  5.5961e-02  2.3463e-04  1.4043e-04  5.9552e-05  0:01:59 1519
   482  2.8469e-04  6.0301e-04  6.5418e-04  5.5131e-02  2.3220e-04  1.3839e-04  5.8842e-05  0:01:35 1518
   483  2.8206e-04  6.0533e-04  6.5395e-04  5.4286e-02  2.2960e-04  1.3637e-04  5.8139e-05  0:01:16 1517
   484  2.7926e-04  6.0775e-04  6.5335e-04  5.3430e-02  2.2685e-04  1.3437e-04  5.7446e-05  0:01:01 1516

  iter  continuity  x-velocity  y-velocity  z-velocity      energy           k       omega     time/iter
   485  2.7631e-04  6.1023e-04  6.5236e-04  5.2581e-02  2.2397e-04  1.3240e-04  5.6756e-05  0:05:52 1515
   486  2.7322e-04  6.1271e-04  6.5098e-04  5.1743e-02  2.2099e-04  1.3043e-04  5.6033e-05  0:04:41 1514
   487  2.7002e-04  6.1516e-04  6.4922e-04  5.0918e-02  2.1791e-04  1.2846e-04  5.5213e-05  0:03:45 1513
   488  2.6673e-04  6.1753e-04  6.4708e-04  5.0111e-02  2.1477e-04  1.2649e-04  5.4423e-05  0:03:00 1512
   489  2.6336e-04  6.1979e-04  6.4457e-04  4.9324e-02  2.1157e-04  1.2453e-04  5.3666e-05  0:02:24 1511
   490  2.5995e-04  6.2191e-04  6.4170e-04  4.8563e-02  2.0835e-04  1.2258e-04  5.2927e-05  0:01:55 1510
   491  2.5653e-04  6.2383e-04  6.3847e-04  4.7827e-02  2.0516e-04  1.2066e-04  5.2213e-05  0:01:32 1509
   492  2.5313e-04  6.2554e-04  6.3491e-04  4.7116e-02  2.0200e-04  1.1875e-04  5.1512e-05  0:01:13 1508
   493  2.4974e-04  6.2698e-04  6.3104e-04  4.6417e-02  1.9889e-04  1.1683e-04  5.0824e-05  0:06:00 1507
   494  2.4639e-04  6.2802e-04  6.2686e-04  4.5755e-02  1.9584e-04  1.1491e-04  5.0121e-05  0:04:48 1506
   495  2.4309e-04  6.2874e-04  6.2241e-04  4.5127e-02  1.9286e-04  1.1301e-04  4.9415e-05  0:03:50 1505

  iter  continuity  x-velocity  y-velocity  z-velocity      energy           k       omega     time/iter
   496  2.3985e-04  6.2913e-04  6.1768e-04  4.4538e-02  1.8997e-04  1.1111e-04  4.8736e-05  0:03:04 1504
   497  2.3669e-04  6.2918e-04  6.1272e-04  4.3992e-02  1.8717e-04  1.0922e-04  4.8060e-05  0:02:27 1503
   498  2.3361e-04  6.2889e-04  6.0752e-04  4.3486e-02  1.8448e-04  1.0732e-04  4.7379e-05  0:01:58 1502
   499  2.3063e-04  6.2823e-04  6.0213e-04  4.3029e-02  1.8189e-04  1.0546e-04  4.6701e-05  0:01:34 1501
   500  2.2774e-04  6.2722e-04  5.9656e-04  4.2624e-02  1.7941e-04  1.0362e-04  4.6033e-05  0:01:15 1500
   501  2.2496e-04  6.2584e-04  5.9084e-04  4.2266e-02  1.7705e-04  1.0180e-04  4.5360e-05  0:06:00 1499
   502  2.2120e-04  6.1112e-04  5.8487e-04  4.1958e-02  1.7348e-04  9.9984e-05  4.4683e-05  0:04:48 1498
   503  2.1801e-04  6.0080e-04  5.7979e-04  4.1704e-02  1.7073e-04  9.8189e-05  4.4020e-05  0:03:50 1497
   504  2.1414e-04  5.9386e-04  5.7228e-04  4.1480e-02  1.6717e-04  9.6403e-05  4.3363e-05  0:03:04 1496
   505  2.0988e-04  5.8392e-04  5.6552e-04  4.1304e-02  1.6307e-04  9.4631e-05  4.2719e-05  0:02:27 1495
   506  2.0609e-04  5.7393e-04  5.5913e-04  4.1184e-02  1.5951e-04  9.2862e-05  4.2081e-05  0:01:58 1494

  iter  continuity  x-velocity  y-velocity  z-velocity      energy           k       omega     time/iter
   507  2.0293e-04  5.6515e-04  5.5277e-04  4.1122e-02  1.5668e-04  9.1135e-05  4.1443e-05  0:01:34 1493
   508  2.0026e-04  5.5762e-04  5.4643e-04  4.1109e-02  1.5438e-04  8.9464e-05  4.0811e-05  0:01:15 1492
   509  1.9790e-04  5.5099e-04  5.4013e-04  4.1148e-02  1.5243e-04  8.7808e-05  4.0192e-05  0:01:00 1491
   510  1.9576e-04  5.4489e-04  5.3390e-04  4.1272e-02  1.5071e-04  8.6186e-05  3.9577e-05  0:05:46 1490
   511  1.9380e-04  5.3908e-04  5.2776e-04  4.1449e-02  1.4916e-04  8.4580e-05  3.8959e-05  0:04:37 1489
   512  1.9200e-04  5.3340e-04  5.2173e-04  4.1664e-02  1.4777e-04  8.3006e-05  3.8331e-05  0:03:41 1488
   513  1.9033e-04  5.2777e-04  5.1582e-04  4.1909e-02  1.4651e-04  8.1452e-05  3.7718e-05  0:02:57 1487
   514  1.8879e-04  5.2218e-04  5.1004e-04  4.2177e-02  1.4536e-04  7.9903e-05  3.7136e-05  0:02:21 1486
   515  1.8736e-04  5.1662e-04  5.0440e-04  4.2463e-02  1.4433e-04  7.8363e-05  3.6558e-05  0:01:53 1485
   516  1.8604e-04  5.1109e-04  4.9891e-04  4.2761e-02  1.4339e-04  7.6851e-05  3.6004e-05  0:01:30 1484
   517  1.8483e-04  5.0558e-04  4.9358e-04  4.3066e-02  1.4255e-04  7.5381e-05  3.5419e-05  0:01:12 1483

  iter  continuity  x-velocity  y-velocity  z-velocity      energy           k       omega     time/iter
   518  1.8370e-04  5.0011e-04  4.8841e-04  4.3372e-02  1.4178e-04  7.3954e-05  3.4836e-05  0:00:58 1482
   519  1.8266e-04  4.9468e-04  4.8341e-04  4.3671e-02  1.4109e-04  7.2554e-05  3.4291e-05  0:05:42 1481
   520  1.8170e-04  4.8930e-04  4.7858e-04  4.3954e-02  1.4048e-04  7.1179e-05  3.3751e-05  0:04:34 1480
   521  1.8081e-04  4.8399e-04  4.7392e-04  4.4220e-02  1.3992e-04  6.9827e-05  3.3238e-05  0:03:39 1479
   522  1.7998e-04  4.7875e-04  4.6944e-04  4.4462e-02  1.3941e-04  6.8500e-05  3.2737e-05  0:02:55 1478
   523  1.7921e-04  4.7359e-04  4.6513e-04  4.4670e-02  1.3894e-04  6.7200e-05  3.2245e-05  0:02:20 1477
   524  1.7848e-04  4.6853e-04  4.6099e-04  4.4834e-02  1.3852e-04  6.5924e-05  3.1756e-05  0:01:52 1476
   525  1.7780e-04  4.6357e-04  4.5702e-04  4.4944e-02  1.3812e-04  6.4695e-05  3.1278e-05  0:01:29 1475
   526  1.7715e-04  4.5873e-04  4.5322e-04  4.4993e-02  1.3775e-04  6.3483e-05  3.0818e-05  0:01:11 1474
   527  1.7652e-04  4.5401e-04  4.4957e-04  4.4973e-02  1.3740e-04  6.2281e-05  3.0368e-05  0:05:52 1473
   528  1.7592e-04  4.4942e-04  4.4607e-04  4.4881e-02  1.3706e-04  6.1128e-05  2.9923e-05  0:04:41 1472

  iter  continuity  x-velocity  y-velocity  z-velocity      energy           k       omega     time/iter
   529  1.7533e-04  4.4498e-04  4.4271e-04  4.4715e-02  1.3673e-04  5.9991e-05  2.9483e-05  0:03:45 1471
   530  1.7476e-04  4.4068e-04  4.3949e-04  4.4482e-02  1.3641e-04  5.8910e-05  2.9049e-05  0:03:00 1470
   531  1.7418e-04  4.3653e-04  4.3639e-04  4.4184e-02  1.3608e-04  5.7886e-05  2.8619e-05  0:02:24 1469
   532  1.7360e-04  4.3253e-04  4.3341e-04  4.3828e-02  1.3574e-04  5.6886e-05  2.8195e-05  0:01:55 1468
   533  1.7301e-04  4.2870e-04  4.3053e-04  4.3398e-02  1.3538e-04  5.5905e-05  2.7781e-05  0:01:32 1467
   534  1.7240e-04  4.2502e-04  4.2776e-04  4.2894e-02  1.3500e-04  5.4954e-05  2.7376e-05  0:01:13 1466
   535  1.7176e-04  4.2149e-04  4.2507e-04  4.2299e-02  1.3459e-04  5.4057e-05  2.6981e-05  0:00:59 1465
   536  1.7110e-04  4.1812e-04  4.2246e-04  4.1622e-02  1.3415e-04  5.3180e-05  2.6589e-05  0:05:40 1464
   537  1.7039e-04  4.1491e-04  4.1992e-04  4.0873e-02  1.3367e-04  5.2340e-05  2.6204e-05  0:04:32 1463
   538  1.6965e-04  4.1184e-04  4.1744e-04  4.0061e-02  1.3315e-04  5.1524e-05  2.5827e-05  0:03:37 1462
   539  1.6885e-04  4.0892e-04  4.1502e-04  3.9196e-02  1.3257e-04  5.0743e-05  2.5463e-05  0:02:54 1461

  iter  continuity  x-velocity  y-velocity  z-velocity      energy           k       omega     time/iter
   540  1.6800e-04  4.0614e-04  4.1263e-04  3.8281e-02  1.3194e-04  4.9991e-05  2.5099e-05  0:02:19 1460
   541  1.6710e-04  4.0349e-04  4.1027e-04  3.7320e-02  1.3125e-04  4.9275e-05  2.4746e-05  0:01:51 1459
   542  1.6613e-04  4.0098e-04  4.0794e-04  3.6315e-02  1.3049e-04  4.8644e-05  2.4394e-05  0:01:29 1458
   543  1.6510e-04  3.9858e-04  4.0562e-04  3.5281e-02  1.2968e-04  4.8045e-05  2.4047e-05  0:01:11 1457
   544  1.6401e-04  3.9630e-04  4.0331e-04  3.4225e-02  1.2879e-04  4.7456e-05  2.3703e-05  0:00:57 1456
   545  1.6285e-04  3.9413e-04  4.0099e-04  3.3150e-02  1.2784e-04  4.6885e-05  2.3389e-05  0:05:36 1455
   546  1.6162e-04  3.9206e-04  3.9866e-04  3.2061e-02  1.2682e-04  4.6318e-05  2.3094e-05  0:04:29 1454
   547  1.6032e-04  3.9008e-04  3.9631e-04  3.0965e-02  1.2573e-04  4.5748e-05  2.2801e-05  0:03:35 1453
   548  1.5896e-04  3.8819e-04  3.9394e-04  2.9873e-02  1.2458e-04  4.5193e-05  2.2510e-05  0:02:52 1452
   549  1.5753e-04  3.8638e-04  3.9153e-04  2.8798e-02  1.2336e-04  4.4647e-05  2.2217e-05  0:02:17 1451
   550  1.5604e-04  3.8465e-04  3.8908e-04  2.7740e-02  1.2208e-04  4.4130e-05  2.1924e-05  0:01:50 1450

  iter  continuity  x-velocity  y-velocity  z-velocity      energy           k       omega     time/iter
   551  1.5448e-04  3.8297e-04  3.8659e-04  2.6708e-02  1.2073e-04  4.3605e-05  2.1633e-05  0:01:28 1449
   552  1.5287e-04  3.8135e-04  3.8405e-04  2.5698e-02  1.1933e-04  4.3096e-05  2.1345e-05  0:01:10 1448
   553  1.5120e-04  3.7978e-04  3.8145e-04  2.4717e-02  1.1788e-04  4.2611e-05  2.1055e-05  0:00:56 1447
   554  1.4948e-04  3.7824e-04  3.7880e-04  2.3770e-02  1.1638e-04  4.2144e-05  2.0770e-05  0:05:34 1446
   555  1.4771e-04  3.7674e-04  3.7609e-04  2.2862e-02  1.1483e-04  4.1699e-05  2.0484e-05  0:04:27 1445
   556  1.4588e-04  3.7525e-04  3.7331e-04  2.1994e-02  1.1322e-04  4.1280e-05  2.0196e-05  0:03:34 1444
   557  1.4403e-04  3.7379e-04  3.7047e-04  2.1169e-02  1.1159e-04  4.0881e-05  1.9908e-05  0:02:51 1443
   558  1.4215e-04  3.7233e-04  3.6756e-04  2.0390e-02  1.0994e-04  4.0501e-05  1.9619e-05  0:02:16 1442
   559  1.4024e-04  3.7087e-04  3.6458e-04  1.9659e-02  1.0827e-04  4.0112e-05  1.9332e-05  0:01:49 1441
   560  1.3831e-04  3.6940e-04  3.6153e-04  1.8975e-02  1.0658e-04  3.9723e-05  1.9044e-05  0:01:27 1440
   561  1.3636e-04  3.6792e-04  3.5842e-04  1.8339e-02  1.0489e-04  3.9343e-05  1.8760e-05  0:01:10 1439

  iter  continuity  x-velocity  y-velocity  z-velocity      energy           k       omega     time/iter
   562  1.3441e-04  3.6641e-04  3.5523e-04  1.7748e-02  1.0318e-04  3.8960e-05  1.8480e-05  0:05:43 1438
   563  1.3244e-04  3.6487e-04  3.5198e-04  1.7201e-02  1.0148e-04  3.8621e-05  1.8204e-05  0:04:34 1437
   564  1.3048e-04  3.6329e-04  3.4867e-04  1.6696e-02  9.9783e-05  3.8284e-05  1.7919e-05  0:03:39 1436
   565  1.2852e-04  3.6166e-04  3.4529e-04  1.6231e-02  9.8095e-05  3.7936e-05  1.7639e-05  0:02:55 1435
   566  1.2657e-04  3.5999e-04  3.4186e-04  1.5806e-02  9.6422e-05  3.7597e-05  1.7363e-05  0:02:20 1434
   567  1.2464e-04  3.5827e-04  3.3836e-04  1.5420e-02  9.4768e-05  3.7276e-05  1.7086e-05  0:01:52 1433
   568  1.2272e-04  3.5648e-04  3.3481e-04  1.5073e-02  9.3138e-05  3.6962e-05  1.6816e-05  0:01:30 1432
   569  1.2083e-04  3.5463e-04  3.3121e-04  1.4764e-02  9.1536e-05  3.6715e-05  1.6554e-05  0:01:12 1431
   570  1.1896e-04  3.5272e-04  3.2757e-04  1.4491e-02  8.9966e-05  3.6511e-05  1.6291e-05  0:00:57 1430
   571  1.1713e-04  3.5073e-04  3.2388e-04  1.4253e-02  8.8430e-05  3.6310e-05  1.6040e-05  0:05:32 1429
   572  1.1533e-04  3.4868e-04  3.2016e-04  1.4046e-02  8.6932e-05  3.6114e-05  1.5798e-05  0:04:25 1428

  iter  continuity  x-velocity  y-velocity  z-velocity      energy           k       omega     time/iter
   573  1.1356e-04  3.4655e-04  3.1641e-04  1.3867e-02  8.5475e-05  3.5926e-05  1.5561e-05  0:03:32 1427
   574  1.1184e-04  3.4435e-04  3.1263e-04  1.3719e-02  8.4061e-05  3.5736e-05  1.5331e-05  0:02:49 1426
   575  1.1016e-04  3.4208e-04  3.0884e-04  1.3599e-02  8.2692e-05  3.5545e-05  1.5112e-05  0:02:15 1425
   576  1.0853e-04  3.3974e-04  3.0503e-04  1.3505e-02  8.1369e-05  3.5382e-05  1.4898e-05  0:01:48 1424
   577  1.0694e-04  3.3733e-04  3.0121e-04  1.3434e-02  8.0095e-05  3.5226e-05  1.4693e-05  0:01:27 1423
   578  1.0540e-04  3.3485e-04  2.9739e-04  1.3385e-02  7.8870e-05  3.5064e-05  1.4484e-05  0:01:09 1422
   579  1.0391e-04  3.3231e-04  2.9358e-04  1.3354e-02  7.7694e-05  3.4897e-05  1.4299e-05  0:00:55 1421
   580  1.0247e-04  3.2971e-04  2.8977e-04  1.3252e-02  7.6569e-05  3.4727e-05  1.4125e-05  0:05:28 1420
   581  1.0109e-04  3.2706e-04  2.8599e-04  1.3190e-02  7.5493e-05  3.4555e-05  1.3957e-05  0:04:22 1419
   582  9.9754e-05  3.2435e-04  2.8222e-04  1.3176e-02  7.4468e-05  3.4395e-05  1.3794e-05  0:03:30 1418
   583  9.8472e-05  3.2160e-04  2.7848e-04  1.3190e-02  7.3493e-05  3.4228e-05  1.3633e-05  0:02:48 1417

  iter  continuity  x-velocity  y-velocity  z-velocity      energy           k       omega     time/iter
   584  9.7243e-05  3.1881e-04  2.7477e-04  1.3222e-02  7.2567e-05  3.4061e-05  1.3471e-05  0:02:14 1416
   585  9.6065e-05  3.1599e-04  2.7111e-04  1.3285e-02  7.1689e-05  3.3909e-05  1.3310e-05  0:01:47 1415
   586  9.4938e-05  3.1314e-04  2.6748e-04  1.3368e-02  7.0859e-05  3.3751e-05  1.3151e-05  0:01:26 1414
   587  9.3862e-05  3.1027e-04  2.6391e-04  1.3460e-02  7.0075e-05  3.3589e-05  1.2996e-05  0:01:08 1413
   588  9.2835e-05  3.0738e-04  2.6039e-04  1.3552e-02  6.9337e-05  3.3423e-05  1.2843e-05  0:05:37 1412
   589  9.1857e-05  3.0449e-04  2.5692e-04  1.3640e-02  6.8642e-05  3.3253e-05  1.2699e-05  0:04:30 1411
   590  9.0925e-05  3.0159e-04  2.5352e-04  1.3718e-02  6.7990e-05  3.3082e-05  1.2561e-05  0:03:35 1410
   591  9.0037e-05  2.9871e-04  2.5018e-04  1.3785e-02  6.7376e-05  3.2911e-05  1.2423e-05  0:02:52 1409
   592  8.9192e-05  2.9583e-04  2.4691e-04  1.3839e-02  6.6800e-05  3.2737e-05  1.2286e-05  0:02:18 1408
   593  8.8387e-05  2.9298e-04  2.4371e-04  1.3876e-02  6.6261e-05  3.2556e-05  1.2151e-05  0:01:50 1407
   594  8.7622e-05  2.9015e-04  2.4059e-04  1.3857e-02  6.5756e-05  3.2365e-05  1.2020e-05  0:01:28 1406

  iter  continuity  x-velocity  y-velocity  z-velocity      energy           k       omega     time/iter
   595  8.6893e-05  2.8735e-04  2.3754e-04  1.3795e-02  6.5283e-05  3.2168e-05  1.1892e-05  0:01:10 1405
   596  8.6199e-05  2.8459e-04  2.3456e-04  1.3692e-02  6.4841e-05  3.1971e-05  1.1770e-05  0:05:37 1404
   597  8.5537e-05  2.8187e-04  2.3167e-04  1.3556e-02  6.4425e-05  3.1770e-05  1.1648e-05  0:04:29 1403
   598  8.4903e-05  2.7920e-04  2.2885e-04  1.3394e-02  6.4034e-05  3.1561e-05  1.1528e-05  0:03:35 1402
   599  8.4293e-05  2.7657e-04  2.2611e-04  1.3209e-02  6.3662e-05  3.1352e-05  1.1412e-05  0:02:52 1401
   600  8.3708e-05  2.7401e-04  2.2345e-04  1.3006e-02  6.3312e-05  3.1135e-05  1.1304e-05  0:02:18 1400
   601  8.3135e-05  2.7150e-04  2.2086e-04  1.2782e-02  6.2966e-05  3.0915e-05  1.1204e-05  0:01:50 1399
   602  8.2568e-05  2.6903e-04  2.1837e-04  1.2538e-02  6.2623e-05  3.0700e-05  1.1110e-05  0:01:28 1398
   603  8.2006e-05  2.6661e-04  2.1598e-04  1.2275e-02  6.2283e-05  3.0477e-05  1.1018e-05  0:01:10 1397
   604  8.1458e-05  2.6429e-04  2.1365e-04  1.1992e-02  6.1954e-05  3.0259e-05  1.0927e-05  0:00:56 1396
   605  8.0920e-05  2.6204e-04  2.1137e-04  1.1691e-02  6.1630e-05  3.0034e-05  1.0839e-05  0:05:24 1395

  iter  continuity  x-velocity  y-velocity  z-velocity      energy           k       omega     time/iter
   606  8.0386e-05  2.5987e-04  2.0914e-04  1.1377e-02  6.1305e-05  2.9801e-05  1.0758e-05  0:04:19 1394
   607  7.9852e-05  2.5777e-04  2.0696e-04  1.1050e-02  6.0973e-05  2.9562e-05  1.0679e-05  0:03:27 1393
   608  7.9313e-05  2.5575e-04  2.0483e-04  1.0716e-02  6.0632e-05  2.9316e-05  1.0598e-05  0:02:46 1392
   609  7.8766e-05  2.5380e-04  2.0275e-04  1.0379e-02  6.0278e-05  2.9066e-05  1.0534e-05  0:02:12 1391
   610  7.8207e-05  2.5193e-04  2.0073e-04  1.0040e-02  5.9908e-05  2.8809e-05  1.0472e-05  0:01:46 1390
   611  7.7635e-05  2.5012e-04  1.9875e-04  9.7015e-03  5.9521e-05  2.8549e-05  1.0408e-05  0:01:25 1389
   612  7.7047e-05  2.4837e-04  1.9683e-04  9.3647e-03  5.9115e-05  2.8290e-05  1.0346e-05  0:01:08 1388
   613  7.6442e-05  2.4669e-04  1.9496e-04  9.0337e-03  5.8687e-05  2.8038e-05  1.0286e-05  0:00:54 1387
   614  7.5818e-05  2.4506e-04  1.9313e-04  8.7119e-03  5.8238e-05  2.7783e-05  1.0230e-05  0:05:20 1386
   615  7.5174e-05  2.4350e-04  1.9133e-04  8.4019e-03  5.7765e-05  2.7524e-05  1.0175e-05  0:04:16 1385
   616  7.4509e-05  2.4199e-04  1.8957e-04  8.1041e-03  5.7269e-05  2.7266e-05  1.0122e-05  0:03:25 1384

  iter  continuity  x-velocity  y-velocity  z-velocity      energy           k       omega     time/iter
   617  7.3822e-05  2.4053e-04  1.8784e-04  7.8183e-03  5.6748e-05  2.7007e-05  1.0075e-05  0:02:44 1383
   618  7.3113e-05  2.3912e-04  1.8613e-04  7.5447e-03  5.6201e-05  2.6748e-05  1.0035e-05  0:02:11 1382
   619  7.2382e-05  2.3776e-04  1.8444e-04  7.2845e-03  5.5630e-05  2.6489e-05  9.9964e-06  0:01:45 1381
   620  7.1628e-05  2.3644e-04  1.8276e-04  7.0394e-03  5.5034e-05  2.6239e-05  9.9575e-06  0:01:24 1380
   621  7.0852e-05  2.3516e-04  1.8110e-04  6.8114e-03  5.4414e-05  2.5990e-05  9.9185e-06  0:01:07 1379
   622  7.0054e-05  2.3391e-04  1.7944e-04  6.6022e-03  5.3771e-05  2.5750e-05  9.8800e-06  0:05:29 1378
   623  6.9237e-05  2.3270e-04  1.7779e-04  6.4137e-03  5.3106e-05  2.5508e-05  9.8446e-06  0:04:23 1377
   624  6.8400e-05  2.3152e-04  1.7614e-04  6.2464e-03  5.2420e-05  2.5267e-05  9.8116e-06  0:03:30 1376
[...]
  1838  1.3305e-07  3.8359e-07  3.2408e-07  1.4852e-04  1.0420e-07  6.1224e-08  3.0702e-08  0:00:19  162
  1839  1.3234e-07  3.8156e-07  3.2240e-07  1.4899e-04  1.0364e-07  6.0850e-08  3.0523e-08  0:00:15  161
  1840  1.3165e-07  3.7954e-07  3.2073e-07  1.4971e-04  1.0309e-07  6.0477e-08  3.0345e-08  0:00:12  160
  1841  1.3095e-07  3.7753e-07  3.1907e-07  1.5053e-04  1.0254e-07  6.0107e-08  3.0168e-08  0:00:10  159
  1842  1.3026e-07  3.7553e-07  3.1741e-07  1.5135e-04  1.0200e-07  5.9738e-08  2.9992e-08  0:00:08  158
  1843  1.2957e-07  3.7354e-07  3.1576e-07  1.5209e-04  1.0145e-07  5.9372e-08  2.9816e-08  0:00:06  157
  1844  1.2888e-07  3.7157e-07  3.1412e-07  1.5272e-04  1.0091e-07  5.9008e-08  2.9642e-08  0:00:05  156
  1845  1.2820e-07  3.6960e-07  3.1248e-07  1.5320e-04  1.0037e-07  5.8646e-08  2.9469e-08  0:00:35  155
  1846  1.2752e-07  3.6764e-07  3.1086e-07  1.5351e-04  9.9836e-08  5.8286e-08  2.9297e-08  0:00:28  154
  1847  1.2684e-07  3.6570e-07  3.0923e-07  1.5364e-04  9.9301e-08  5.7928e-08  2.9126e-08  0:00:22  153
  1848  1.2617e-07  3.6376e-07  3.0762e-07  1.5357e-04  9.8769e-08  5.7573e-08  2.8956e-08  0:00:17  152

  iter  continuity  x-velocity  y-velocity  z-velocity      energy           k       omega     time/iter
  1849  1.2550e-07  3.6183e-07  3.0601e-07  1.5331e-04  9.8240e-08  5.7219e-08  2.8786e-08  0:00:14  151
  1850  1.2483e-07  3.5992e-07  3.0441e-07  1.5283e-04  9.7713e-08  5.6867e-08  2.8618e-08  0:00:11  150
  1851  1.2416e-07  3.5801e-07  3.0281e-07  1.5216e-04  9.7188e-08  5.6518e-08  2.8451e-08  0:00:09  149
  1852  1.2350e-07  3.5611e-07  3.0122e-07  1.5127e-04  9.6665e-08  5.6171e-08  2.8285e-08  0:00:07  148
  1853  1.2284e-07  3.5423e-07  2.9964e-07  1.5018e-04  9.6145e-08  5.5826e-08  2.8119e-08  0:00:06  147
  1854  1.2218e-07  3.5235e-07  2.9806e-07  1.4889e-04  9.5627e-08  5.5483e-08  2.7955e-08  0:00:04  146
  1855  1.2153e-07  3.5049e-07  2.9649e-07  1.4741e-04  9.5112e-08  5.5142e-08  2.7792e-08  0:00:32  145
  1856  1.2088e-07  3.4863e-07  2.9493e-07  1.4575e-04  9.4599e-08  5.4803e-08  2.7630e-08  0:00:26  144
  1857  1.2023e-07  3.4678e-07  2.9338e-07  1.4392e-04  9.4088e-08  5.4467e-08  2.7468e-08  0:00:21  143
  1858  1.1959e-07  3.4495e-07  2.9183e-07  1.4193e-04  9.3579e-08  5.4132e-08  2.7308e-08  0:00:16  142
  1859  1.1894e-07  3.4312e-07  2.9028e-07  1.3981e-04  9.3073e-08  5.3800e-08  2.7149e-08  0:00:13  141

  iter  continuity  x-velocity  y-velocity  z-velocity      energy           k       omega     time/iter
  1860  1.1830e-07  3.4130e-07  2.8875e-07  1.3761e-04  9.2569e-08  5.3470e-08  2.6990e-08  0:00:10  140
  1861  1.1767e-07  3.3950e-07  2.8722e-07  1.3529e-04  9.2068e-08  5.3142e-08  2.6833e-08  0:00:08  139
  1862  1.1703e-07  3.3770e-07  2.8570e-07  1.3288e-04  9.1568e-08  5.2816e-08  2.6676e-08  0:00:06  138
  1863  1.1640e-07  3.3591e-07  2.8418e-07  1.3038e-04  9.1071e-08  5.2492e-08  2.6521e-08  0:00:05  137
  1864  1.1577e-07  3.3413e-07  2.8267e-07  1.2781e-04  9.0577e-08  5.2170e-08  2.6366e-08  0:00:31  136
  1865  1.1515e-07  3.3236e-07  2.8117e-07  1.2519e-04  9.0084e-08  5.1851e-08  2.6213e-08  0:00:25  135
  1866  1.1453e-07  3.3060e-07  2.7967e-07  1.2244e-04  8.9594e-08  5.1533e-08  2.6060e-08  0:00:20  134
  1867  1.1391e-07  3.2885e-07  2.7818e-07  1.1972e-04  8.9107e-08  5.1217e-08  2.5909e-08  0:00:16  133
  1868  1.1329e-07  3.2711e-07  2.7669e-07  1.1693e-04  8.8621e-08  5.0904e-08  2.5758e-08  0:00:12  132
  1869  1.1268e-07  3.2537e-07  2.7522e-07  1.1397e-04  8.8138e-08  5.0593e-08  2.5609e-08  0:00:10  131
  1870  1.1207e-07  3.2365e-07  2.7374e-07  1.1115e-04  8.7658e-08  5.0284e-08  2.5460e-08  0:00:08  130

  iter  continuity  x-velocity  y-velocity  z-velocity      energy           k       omega     time/iter
  1871  1.1146e-07  3.2193e-07  2.7228e-07  1.0841e-04  8.7180e-08  4.9976e-08  2.5313e-08  0:00:06  129
  1872  1.1086e-07  3.2023e-07  2.7082e-07  1.0574e-04  8.6704e-08  4.9671e-08  2.5166e-08  0:00:05  128
  1873  1.1025e-07  3.1853e-07  2.6937e-07  1.0314e-04  8.6230e-08  4.9368e-08  2.5020e-08  0:00:04  127
  1874  1.0965e-07  3.1684e-07  2.6792e-07  1.0061e-04  8.5759e-08  4.9067e-08  2.4876e-08  0:00:28  126
  1875  1.0906e-07  3.1516e-07  2.6649e-07  9.8146e-05  8.5290e-08  4.8768e-08  2.4732e-08  0:00:22  125
  1876  1.0847e-07  3.1349e-07  2.6505e-07  9.5742e-05  8.4824e-08  4.8471e-08  2.4589e-08  0:00:18  124
  1877  1.0788e-07  3.1183e-07  2.6363e-07  9.3400e-05  8.4360e-08  4.8176e-08  2.4447e-08  0:00:14  123
  1878  1.0729e-07  3.1017e-07  2.6221e-07  9.1120e-05  8.3898e-08  4.7883e-08  2.4307e-08  0:00:11  122
  1879  1.0670e-07  3.0853e-07  2.6080e-07  8.8902e-05  8.3438e-08  4.7592e-08  2.4167e-08  0:00:09  121
  1880  1.0612e-07  3.0689e-07  2.5939e-07  8.6742e-05  8.2981e-08  4.7302e-08  2.4028e-08  0:00:07  120
  1881  1.0555e-07  3.0526e-07  2.5799e-07  8.4637e-05  8.2527e-08  4.7015e-08  2.3890e-08  0:00:06  119

  iter  continuity  x-velocity  y-velocity  z-velocity      energy           k       omega     time/iter
  1882  1.0497e-07  3.0364e-07  2.5660e-07  8.2581e-05  8.2075e-08  4.6730e-08  2.3753e-08  0:00:04  118
  1883  1.0440e-07  3.0203e-07  2.5521e-07  8.0573e-05  8.1625e-08  4.6447e-08  2.3617e-08  0:00:04  117
  1884  1.0383e-07  3.0043e-07  2.5383e-07  7.8611e-05  8.1177e-08  4.6166e-08  2.3481e-08  0:00:03  116
  1885  1.0326e-07  2.9884e-07  2.5246e-07  7.6690e-05  8.0732e-08  4.5886e-08  2.3347e-08  0:00:25  115
  1886  1.0270e-07  2.9725e-07  2.5109e-07  7.4808e-05  8.0289e-08  4.5609e-08  2.3214e-08  0:00:20  114
  1887  1.0214e-07  2.9567e-07  2.4973e-07  7.2958e-05  7.9848e-08  4.5333e-08  2.3081e-08  0:00:16  113
  1888  1.0158e-07  2.9410e-07  2.4838e-07  7.1137e-05  7.9410e-08  4.5060e-08  2.2950e-08  0:00:13  112
  1889  1.0102e-07  2.9254e-07  2.4703e-07  6.9344e-05  7.8974e-08  4.4788e-08  2.2819e-08  0:00:10  111
  1890  1.0047e-07  2.9099e-07  2.4569e-07  6.7580e-05  7.8540e-08  4.4519e-08  2.2689e-08  0:00:08  110
  1891  9.9921e-08  2.8944e-07  2.4435e-07  6.5834e-05  7.8108e-08  4.4251e-08  2.2560e-08  0:00:06  109
  1892  9.9374e-08  2.8791e-07  2.4303e-07  6.4108e-05  7.7678e-08  4.3985e-08  2.2432e-08  0:00:05  108

  iter  continuity  x-velocity  y-velocity  z-velocity      energy           k       omega     time/iter
  1893  9.8830e-08  2.8638e-07  2.4171e-07  6.2405e-05  7.7251e-08  4.3721e-08  2.2305e-08  0:00:04  107
  1894  9.8289e-08  2.8486e-07  2.4039e-07  6.0721e-05  7.6826e-08  4.3458e-08  2.2179e-08  0:00:03  106
  1895  9.7750e-08  2.8335e-07  2.3908e-07  5.9059e-05  7.6403e-08  4.3198e-08  2.2053e-08  0:00:02  105
  1896  9.7214e-08  2.8184e-07  2.3778e-07  5.7417e-05  7.5982e-08  4.2940e-08  2.1929e-08  0:00:23  104
  1897  9.6680e-08  2.8034e-07  2.3649e-07  5.5796e-05  7.5563e-08  4.2683e-08  2.1805e-08  0:00:18  103
  1898  9.6149e-08  2.7886e-07  2.3520e-07  5.4194e-05  7.5147e-08  4.2428e-08  2.1682e-08  0:00:14  102
  1899  9.5621e-08  2.7738e-07  2.3391e-07  5.2611e-05  7.4732e-08  4.2175e-08  2.1560e-08  0:00:11  101
  1900  9.5095e-08  2.7590e-07  2.3264e-07  5.1047e-05  7.4319e-08  4.1924e-08  2.1439e-08  0:00:09  100
  1901  9.4572e-08  2.7444e-07  2.3137e-07  4.9503e-05  7.3909e-08  4.1675e-08  2.1318e-08  0:00:07   99
  1902  9.4052e-08  2.7298e-07  2.3010e-07  4.7982e-05  7.3500e-08  4.1427e-08  2.1198e-08  0:00:06   98
  1903  9.3534e-08  2.7153e-07  2.2885e-07  4.6482e-05  7.3094e-08  4.1182e-08  2.1079e-08  0:00:04   97

  iter  continuity  x-velocity  y-velocity  z-velocity      energy           k       omega     time/iter
  1904  9.3018e-08  2.7009e-07  2.2759e-07  4.5006e-05  7.2690e-08  4.0938e-08  2.0961e-08  0:00:04   96
  1905  9.2505e-08  2.6866e-07  2.2635e-07  4.3554e-05  7.2287e-08  4.0696e-08  2.0844e-08  0:00:03   95
  1906  9.1995e-08  2.6723e-07  2.2511e-07  4.2128e-05  7.1887e-08  4.0456e-08  2.0727e-08  0:00:02   94
  1907  9.1487e-08  2.6581e-07  2.2388e-07  4.0728e-05  7.1488e-08  4.0217e-08  2.0611e-08  0:00:20   93
  1908  9.0981e-08  2.6440e-07  2.2265e-07  3.9358e-05  7.1092e-08  3.9980e-08  2.0496e-08  0:00:16   92
  1909  9.0478e-08  2.6300e-07  2.2143e-07  3.8016e-05  7.0697e-08  3.9745e-08  2.0382e-08  0:00:13   91
  1910  8.9978e-08  2.6160e-07  2.2021e-07  3.6706e-05  7.0305e-08  3.9512e-08  2.0269e-08  0:00:10   90
  1911  8.9480e-08  2.6022e-07  2.1900e-07  3.5427e-05  6.9914e-08  3.9281e-08  2.0156e-08  0:00:08   89
  1912  8.8984e-08  2.5883e-07  2.1780e-07  3.4181e-05  6.9525e-08  3.9051e-08  2.0044e-08  0:00:06   88
  1913  8.8491e-08  2.5746e-07  2.1660e-07  3.2970e-05  6.9139e-08  3.8823e-08  1.9933e-08  0:00:05   87
  1914  8.8000e-08  2.5610e-07  2.1541e-07  3.1793e-05  6.8754e-08  3.8596e-08  1.9822e-08  0:00:04   86

  iter  continuity  x-velocity  y-velocity  z-velocity      energy           k       omega     time/iter
  1915  8.7512e-08  2.5474e-07  2.1422e-07  3.0653e-05  6.8371e-08  3.8372e-08  1.9713e-08  0:00:03   85
  1916  8.7026e-08  2.5338e-07  2.1304e-07  2.9549e-05  6.7991e-08  3.8149e-08  1.9604e-08  0:00:02   84
  1917  8.6543e-08  2.5204e-07  2.1186e-07  2.8483e-05  6.7612e-08  3.7927e-08  1.9495e-08  0:00:19   83
  1918  8.6062e-08  2.5070e-07  2.1069e-07  2.7454e-05  6.7235e-08  3.7708e-08  1.9388e-08  0:00:15   82
  1919  8.5584e-08  2.4937e-07  2.0953e-07  2.6464e-05  6.6860e-08  3.7490e-08  1.9281e-08  0:00:12   81
  1920  8.5108e-08  2.4805e-07  2.0837e-07  2.5512e-05  6.6487e-08  3.7273e-08  1.9175e-08  0:00:09   80
  1921  8.4634e-08  2.4673e-07  2.0722e-07  2.4599e-05  6.6116e-08  3.7058e-08  1.9069e-08  0:00:07   79
  1922  8.4163e-08  2.4543e-07  2.0607e-07  2.3725e-05  6.5747e-08  3.6845e-08  1.8965e-08  0:00:06   78
  1923  8.3695e-08  2.4412e-07  2.0493e-07  2.2889e-05  6.5381e-08  3.6633e-08  1.8861e-08  0:00:05   77
  1924  8.3229e-08  2.4283e-07  2.0380e-07  2.2091e-05  6.5016e-08  3.6423e-08  1.8757e-08  0:00:04   76
  1925  8.2766e-08  2.4154e-07  2.0267e-07  2.1331e-05  6.4653e-08  3.6215e-08  1.8655e-08  0:00:03   75

  iter  continuity  x-velocity  y-velocity  z-velocity      energy           k       omega     time/iter
  1926  8.2305e-08  2.4026e-07  2.0154e-07  2.0608e-05  6.4292e-08  3.6007e-08  1.8553e-08  0:00:02   74
  1927  8.1846e-08  2.3898e-07  2.0043e-07  1.9921e-05  6.3933e-08  3.5802e-08  1.8452e-08  0:00:16   73
  1928  8.1391e-08  2.3771e-07  1.9931e-07  1.9270e-05  6.3576e-08  3.5598e-08  1.8351e-08  0:00:13   72
  1929  8.0937e-08  2.3645e-07  1.9821e-07  1.8652e-05  6.3221e-08  3.5395e-08  1.8251e-08  0:00:10   71
  1930  8.0487e-08  2.3520e-07  1.9711e-07  1.8067e-05  6.2869e-08  3.5194e-08  1.8152e-08  0:00:08   70
  1931  8.0038e-08  2.3395e-07  1.9601e-07  1.7514e-05  6.2518e-08  3.4995e-08  1.8054e-08  0:00:06   69
  1932  7.9593e-08  2.3271e-07  1.9492e-07  1.6992e-05  6.2169e-08  3.4797e-08  1.7956e-08  0:00:05   68
  1933  7.9150e-08  2.3147e-07  1.9384e-07  1.6500e-05  6.1823e-08  3.4600e-08  1.7859e-08  0:00:04   67
  1934  7.8709e-08  2.3024e-07  1.9276e-07  1.6035e-05  6.1478e-08  3.4405e-08  1.7762e-08  0:00:03   66
  1935  7.8271e-08  2.2902e-07  1.9169e-07  1.5596e-05  6.1136e-08  3.4211e-08  1.7666e-08  0:00:02   65
  1936  7.7836e-08  2.2781e-07  1.9062e-07  1.5183e-05  6.0795e-08  3.4019e-08  1.7571e-08  0:00:02   64

  iter  continuity  x-velocity  y-velocity  z-velocity      energy           k       omega     time/iter
  1937  7.7403e-08  2.2660e-07  1.8956e-07  1.4794e-05  6.0457e-08  3.3828e-08  1.7477e-08  0:00:02   63
  1938  7.6973e-08  2.2539e-07  1.8851e-07  1.4426e-05  6.0121e-08  3.3638e-08  1.7383e-08  0:00:14   62
  1939  7.6545e-08  2.2420e-07  1.8746e-07  1.4080e-05  5.9786e-08  3.3450e-08  1.7289e-08  0:00:11   61
  1940  7.6120e-08  2.2301e-07  1.8641e-07  1.3753e-05  5.9454e-08  3.3263e-08  1.7197e-08  0:00:08   60
  1941  7.5698e-08  2.2182e-07  1.8538e-07  1.3445e-05  5.9124e-08  3.3078e-08  1.7104e-08  0:00:07   59
  1942  7.5278e-08  2.2064e-07  1.8434e-07  1.3153e-05  5.8796e-08  3.2893e-08  1.7013e-08  0:00:05   58
  1943  7.4860e-08  2.1947e-07  1.8332e-07  1.2878e-05  5.8470e-08  3.2711e-08  1.6922e-08  0:00:04   57
  1944  7.4445e-08  2.1831e-07  1.8230e-07  1.2618e-05  5.8145e-08  3.2529e-08  1.6832e-08  0:00:03   56
  1945  7.4033e-08  2.1715e-07  1.8128e-07  1.2371e-05  5.7823e-08  3.2349e-08  1.6742e-08  0:00:03   55
  1946  7.3622e-08  2.1600e-07  1.8028e-07  1.2137e-05  5.7503e-08  3.2170e-08  1.6653e-08  0:00:02   54
  1947  7.3215e-08  2.1485e-07  1.7927e-07  1.1916e-05  5.7185e-08  3.1993e-08  1.6564e-08  0:00:02   53

  iter  continuity  x-velocity  y-velocity  z-velocity      energy           k       omega     time/iter
  1948  7.2810e-08  2.1371e-07  1.7828e-07  1.1706e-05  5.6868e-08  3.1817e-08  1.6476e-08  0:00:01   52
  1949  7.2407e-08  2.1258e-07  1.7729e-07  1.1506e-05  5.6554e-08  3.1642e-08  1.6389e-08  0:00:11   51
  1950  7.2007e-08  2.1145e-07  1.7630e-07  1.1316e-05  5.6241e-08  3.1468e-08  1.6302e-08  0:00:09   50
  1951  7.1609e-08  2.1033e-07  1.7532e-07  1.1135e-05  5.5931e-08  3.1296e-08  1.6215e-08  0:00:07   49
  1952  7.1213e-08  2.0921e-07  1.7435e-07  1.0963e-05  5.5622e-08  3.1125e-08  1.6130e-08  0:00:05   48
  1953  7.0820e-08  2.0810e-07  1.7338e-07  1.0799e-05  5.5315e-08  3.0955e-08  1.6044e-08  0:00:04   47
  1954  7.0428e-08  2.0700e-07  1.7242e-07  1.0642e-05  5.5010e-08  3.0786e-08  1.5960e-08  0:00:03   46
  1955  7.0040e-08  2.0590e-07  1.7146e-07  1.0493e-05  5.4706e-08  3.0619e-08  1.5876e-08  0:00:03   45
  1956  6.9653e-08  2.0481e-07  1.7051e-07  1.0351e-05  5.4405e-08  3.0452e-08  1.5792e-08  0:00:02   44
  1957  6.9269e-08  2.0372e-07  1.6956e-07  1.0215e-05  5.4105e-08  3.0287e-08  1.5709e-08  0:00:02   43
  1958  6.8887e-08  2.0264e-07  1.6862e-07  1.0085e-05  5.3807e-08  3.0123e-08  1.5626e-08  0:00:01   42

  iter  continuity  x-velocity  y-velocity  z-velocity      energy           k       omega     time/iter
  1959  6.8507e-08  2.0157e-07  1.6769e-07  9.9607e-06  5.3511e-08  2.9960e-08  1.5544e-08  0:00:09   41
  1960  6.8129e-08  2.0050e-07  1.6676e-07  9.8419e-06  5.3216e-08  2.9799e-08  1.5463e-08  0:00:07   40
  1961  6.7754e-08  1.9944e-07  1.6584e-07  9.7281e-06  5.2923e-08  2.9638e-08  1.5382e-08  0:00:06   39
  1962  6.7380e-08  1.9838e-07  1.6492e-07  9.6191e-06  5.2631e-08  2.9479e-08  1.5301e-08  0:00:04   38
  1963  6.7009e-08  1.9733e-07  1.6401e-07  9.5146e-06  5.2342e-08  2.9321e-08  1.5221e-08  0:00:03   37
  1964  6.6640e-08  1.9629e-07  1.6310e-07  9.4143e-06  5.2053e-08  2.9164e-08  1.5142e-08  0:00:03   36
  1965  6.6272e-08  1.9525e-07  1.6220e-07  9.3181e-06  5.1767e-08  2.9008e-08  1.5063e-08  0:00:02   35
  1966  6.5907e-08  1.9421e-07  1.6130e-07  9.2256e-06  5.1482e-08  2.8853e-08  1.4984e-08  0:00:02   34
  1967  6.5544e-08  1.9318e-07  1.6041e-07  9.1366e-06  5.1199e-08  2.8700e-08  1.4906e-08  0:00:01   33
  1968  6.5183e-08  1.9216e-07  1.5952e-07  9.0510e-06  5.0917e-08  2.8547e-08  1.4829e-08  0:00:01   32
  1969  6.4824e-08  1.9115e-07  1.5864e-07  8.9704e-06  5.0637e-08  2.8396e-08  1.4752e-08  0:00:01   31

  iter  continuity  x-velocity  y-velocity  z-velocity      energy           k       omega     time/iter
  1970  6.4467e-08  1.9013e-07  1.5776e-07  8.8981e-06  5.0358e-08  2.8245e-08  1.4675e-08  0:00:07   30
  1971  6.4112e-08  1.8913e-07  1.5689e-07  8.8369e-06  5.0081e-08  2.8096e-08  1.4599e-08  0:00:05   29
  1972  6.3759e-08  1.8813e-07  1.5602e-07  8.7891e-06  4.9806e-08  2.7948e-08  1.4523e-08  0:00:04   28
  1973  6.3408e-08  1.8713e-07  1.5516e-07  8.7569e-06  4.9532e-08  2.7801e-08  1.4448e-08  0:00:03   27
  1974  6.3058e-08  1.8615e-07  1.5430e-07  8.7424e-06  4.9259e-08  2.7654e-08  1.4373e-08  0:00:02   26
  1975  6.2711e-08  1.8516e-07  1.5345e-07  8.7350e-06  4.8989e-08  2.7509e-08  1.4299e-08  0:00:02   25
  1976  6.2366e-08  1.8418e-07  1.5260e-07  8.7218e-06  4.8719e-08  2.7365e-08  1.4225e-08  0:00:01   24
  1977  6.2023e-08  1.8321e-07  1.5176e-07  8.7069e-06  4.8452e-08  2.7222e-08  1.4152e-08  0:00:01   23
  1978  6.1682e-08  1.8224e-07  1.5092e-07  8.6898e-06  4.8186e-08  2.7080e-08  1.4079e-08  0:00:05   22
  1979  6.1343e-08  1.8128e-07  1.5009e-07  8.6683e-06  4.7921e-08  2.6939e-08  1.4007e-08  0:00:04   21
  1980  6.1006e-08  1.8032e-07  1.4926e-07  8.6403e-06  4.7658e-08  2.6798e-08  1.3935e-08  0:00:03   20

  iter  continuity  x-velocity  y-velocity  z-velocity      energy           k       omega     time/iter
  1981  6.0670e-08  1.7937e-07  1.4843e-07  8.6043e-06  4.7396e-08  2.6659e-08  1.3863e-08  0:00:02   19
  1982  6.0337e-08  1.7842e-07  1.4761e-07  8.5609e-06  4.7137e-08  2.6521e-08  1.3792e-08  0:00:02   18
  1983  6.0006e-08  1.7748e-07  1.4680e-07  8.5115e-06  4.6878e-08  2.6384e-08  1.3722e-08  0:00:01   17
  1984  5.9676e-08  1.7654e-07  1.4599e-07  8.4576e-06  4.6621e-08  2.6247e-08  1.3652e-08  0:00:01   16
  1985  5.9349e-08  1.7561e-07  1.4518e-07  8.3965e-06  4.6366e-08  2.6112e-08  1.3582e-08  0:00:01   15
  1986  5.9024e-08  1.7468e-07  1.4438e-07  8.3318e-06  4.6113e-08  2.5978e-08  1.3513e-08  0:00:01   14
  1987  5.8700e-08  1.7376e-07  1.4359e-07  8.2637e-06  4.5860e-08  2.5844e-08  1.3444e-08  0:00:00   13
  1988  5.8379e-08  1.7284e-07  1.4279e-07  8.1930e-06  4.5610e-08  2.5711e-08  1.3375e-08  0:00:00   12
  1989  5.8059e-08  1.7193e-07  1.4201e-07  8.1191e-06  4.5361e-08  2.5580e-08  1.3307e-08  0:00:02   11
  1990  5.7742e-08  1.7102e-07  1.4122e-07  8.0435e-06  4.5113e-08  2.5449e-08  1.3239e-08  0:00:02   10
  1991  5.7426e-08  1.7012e-07  1.4044e-07  7.9675e-06  4.4868e-08  2.5319e-08  1.3172e-08  0:00:01    9

  iter  continuity  x-velocity  y-velocity  z-velocity      energy           k       omega     time/iter
  1992  5.7113e-08  1.6922e-07  1.3967e-07  7.8923e-06  4.4623e-08  2.5190e-08  1.3105e-08  0:00:01    8
  1993  5.6801e-08  1.6833e-07  1.3890e-07  7.8188e-06  4.4380e-08  2.5062e-08  1.3039e-08  0:00:01    7
  1994  5.6491e-08  1.6744e-07  1.3814e-07  7.7477e-06  4.4139e-08  2.4934e-08  1.2973e-08  0:00:00    6
  1995  5.6183e-08  1.6656e-07  1.3737e-07  7.6794e-06  4.3899e-08  2.4808e-08  1.2907e-08  0:00:00    5
  1996  5.5877e-08  1.6568e-07  1.3662e-07  7.6145e-06  4.3661e-08  2.4683e-08  1.2842e-08  0:00:00    4
  1997  5.5573e-08  1.6480e-07  1.3587e-07  7.5524e-06  4.3424e-08  2.4558e-08  1.2777e-08  0:00:00    3
  1998  5.5271e-08  1.6393e-07  1.3512e-07  7.4933e-06  4.3189e-08  2.4434e-08  1.2713e-08  0:00:00    2
  1999  5.4971e-08  1.6307e-07  1.3438e-07  7.4366e-06  4.2955e-08  2.4311e-08  1.2649e-08  0:00:00    1
  2000  5.4672e-08  1.6221e-07  1.3364e-07  7.3819e-06  4.2723e-08  2.4189e-08  1.2585e-08  0:00:00    0

> 
adjoint/                parallel/               server/
define/                 parametric-study/       solve/
display/                plot/                   surface/
exit                    preferences/            turbo-workflow/
file/                   print-license-usage     views/
mesh/                   report/

> /file/write-case-data project1
Fast-loading "C:\PROGRA~1\ANSYSI~1\v231\fluent\fluent23.1.0\\addons\afd\lib\hdfio.bin"
Done.

Writing to Engs-30669:"C:\Users\kebl7595\Desktop\CFD\Runs\Viscous\Mach 0.3\9 degrees\project1.cas.h5" in NODE0 mode and compression level 1 ...
       12996 cells,     1 zone  ...
       43722 faces,     8 zones ...
       17864 nodes,     1 zone  ...
  Done.
Done.

Writing to Engs-30669:"C:\Users\kebl7595\Desktop\CFD\Runs\Viscous\Mach 0.3\9 degrees\project1.dat.h5" in NODE0 mode and compression level 1 ...
  Writing results.
Done.

> /file/export/ascii "./surface.dat" wing te () no pressure mach-number quit no

Writing "./surface.dat"...

Writing information to ascii file ...
Done.


> /report/forces/wall-forces y -0.15643 0.98769 0 y "Lift"

> /report/forces/wall-forces y 0.98769 0.15643 0 y "Drag"

> /exit

Posting ANSYS Product Improvement Program performance data 
Done.
Auto-Transcript Stop Time:  14:01:20, 21 May 2024 GMT Daylight Time 
Total Transcript Time: 4 Minute 31 Second.
