Auto-Transcript Start Time:  14:26:53, 21 May 2024 GMT Daylight Time 
Current Directory: "C:\Users\kebl7595\Desktop\CFD\Runs\Viscous\Mach 0.3\9 degrees"

              Welcome to ANSYS Fluent 2023 R1

              Copyright 1987-2023 ANSYS, Inc. All Rights Reserved.
              Unauthorized use, distribution or duplication is prohibited.
              This product is subject to U.S. laws governing export and re-export.
              For full Legal Notice, see documentation.

Build Time: Nov 28 2022 09:52:02 EST  Build Id: 10208  
 
Connected License Server List:	1055@ansyslic.eng.ox.ac.uk

*********************************************
Info: Your license enables 4-way parallel execution.
For faster simulations, please start the application with the appropriate parallel options.
*********************************************


     --------------------------------------------------------------
     This is an academic version of ANSYS FLUENT. Usage of this product
     license is limited to the terms and conditions specified in your ANSYS
     license form, additional terms section.
     --------------------------------------------------------------
Host spawning Node 0 on machine "Engs-30669" (win64).

------------------------------------------------------------------------------------
ID    Hostname    Core  O.S.         PID    Vendor                                 
------------------------------------------------------------------------------------
n0    Engs-30669  1/32  Windows-x64  15296  13th Gen Intel(R) Core(TM) i9-13900    
host  Engs-30669        Windows-x64  45752  13th Gen Intel(R) Core(TM) i9-13900    

MPI Option Selected: intel
------------------------------------------------------------------------------------

Cleanup script file is C:\\Users\\kebl7595\\Desktop\\CFD\\Runs\\Viscous\\Mach 0.3\\9 degrees\\cleanup-fluent-Engs-30669-45752.bat
QA Service Message :
QA Services Agreement Enabled. This application is included in the scope of an ANSYS QA Services Agreement.
Posting ANSYS Product Improvement Program startup data
Done.
Fast-loading "C:\PROGRA~1\ANSYSI~1\v231\fluent\fluent23.1.0\\addons\afd\lib\hdfio.bin"
Done.
Note: Rank = 0: Process affinity not being set (6).

Reading from Engs-30669:"C:/Users/kebl7595/Desktop/CFD/Runs/Viscous/Mach 0.3/9 degrees/project1.cas.h5" in NODE0 mode ...
  Reading mesh ...
       12996 cells,     1 cell zone  ...
          12996 hexahedral cells,  zone id: 1
       43722 faces,     8 face zones ...
           4332 quadrilateral symmetry faces,  zone id: 2
            228 quadrilateral pressure-far-field faces,  zone id: 10
           4332 quadrilateral symmetry faces,  zone id: 9
            342 quadrilateral pressure-far-field faces,  zone id: 8
            228 quadrilateral wall faces,  zone id: 7
          33972 quadrilateral interior faces,  zone id: 3
            282 quadrilateral interior faces,  zone id: 4
              6 quadrilateral wall faces,  zone id: 5
       17864 nodes,     1 node zone  ...
  Done.


Building...
     mesh
     materials,
     interface,
     domains,
	mixture
     zones,
	te
	interface-default_subface
	default_interior-1
	wing
	far1
	far2
	sym1
	sym2
	default
     parallel,
Done.

Reading from Engs-30669:"C:/Users/kebl7595/Desktop/CFD/Runs/Viscous/Mach 0.3/9 degrees/project1.dat.h5" in NODE0 mode ...


  Reading results.
Parallel variables...
Done.

> (cx-gui-do cx-activate-item "QA Service Message*PanelButtons*PushButton1(OK)")
(cx-gui-do cx-set-list-tree-selections "NavigationPane*Frame2*Table1*List_Tree2" (list "Setup|Models|Viscous (Standard k-omega)"))
(cx-gui-do cx-set-list-tree-selections "NavigationPane*Frame2*Table1*List_Tree2" (list "Setup|Models|Viscous (Standard k-omega)"))
(cx-gui-do cx-activate-item "NavigationPane*Frame2*Table1*List_Tree2")
(cx-gui-do cx-set-list-tree-selections "NavigationPane*Frame2*Table1*List_Tree2" (list "Setup|Models|Viscous (Standard k-omega)"))
(cx-gui-do cx-set-toggle-button2 "Viscous Model*Table1*ToggleBox1(Model)*Spalart-Allmaras (1 eqn)" #t)
(cx-gui-do cx-activate-item "Viscous Model*Table1*ToggleBox1(Model)*Spalart-Allmaras (1 eqn)")
(cx-gui-do cx-activate-item "Viscous Model*PanelButtons*PushButton1(OK)")
(cx-gui-do cx-set-list-tree-selections "NavigationPane*Frame2*Table1*List_Tree2" (list "Solution|Run Calculation"))
(cx-gui-do cx-set-list-tree-selections "NavigationPane*Frame2*Table1*List_Tree2" (list "Solution|Run Calculation"))
(cx-gui-do cx-set-list-tree-selections "NavigationPane*Frame2*Table1*List_Tree2" (list "Solution|Run Calculation"))
(cx-gui-do cx-activate-item "NavigationPane*Frame2*Table1*List_Tree2")
(cx-gui-do cx-set-list-tree-selections "NavigationPane*Frame2*Table1*List_Tree2" (list "Solution|Run Calculation"))
(cx-gui-do cx-activate-item "Run Calculation*Table1*Table6(Solution Advancement)*Table1*PushButton1(Calculate)")


  iter  continuity  x-velocity  y-velocity  z-velocity      energy         nut     time/iter
  2000  5.4672e-08  1.6221e-07  1.3364e-07  7.3819e-06  4.2723e-08  0.0000e+00  0:00:00 2000
  2001  6.0750e-03  4.7462e-01  1.3148e-01  2.3871e+00  7.9794e-03  4.3367e-02  0:33:19 1999
  2002  5.7971e-03  1.6562e-01  6.3010e-02  9.8149e-01  5.4751e-03  2.3197e-02  0:26:38 1998
  2003  6.1409e-03  8.4476e-02  3.7266e-02  5.0277e-01  5.7851e-03  1.4777e-02  0:21:18 1997
  2004  5.3347e-03  5.6040e-02  2.3565e-02  2.9429e-01  5.0401e-03  1.1226e-02  0:17:02 1996
  2005  4.8814e-03  4.2408e-02  1.6582e-02  1.8518e-01  4.6580e-03  9.7140e-03  0:13:37 1995
  2006  4.6634e-03  3.3021e-02  1.2299e-02  1.2852e-01  4.4897e-03  9.0690e-03  0:10:53 1994
  2007  4.3112e-03  2.6225e-02  9.7472e-03  1.0274e-01  4.1632e-03  8.8003e-03  0:08:42 1993
  2008  3.8252e-03  2.1577e-02  8.2849e-03  9.0614e-02  3.6899e-03  8.6985e-03  0:06:58 1992
  2009  3.2498e-03  1.8421e-02  7.4700e-03  8.3549e-02  3.1183e-03  8.6754e-03  0:05:34 1991
  2010  2.7383e-03  1.6328e-02  6.8803e-03  7.9127e-02  2.6093e-03  8.6932e-03  0:04:27 1990

  iter  continuity  x-velocity  y-velocity  z-velocity      energy         nut     time/iter
  2011  2.3268e-03  1.4816e-02  6.3443e-03  7.6284e-02  2.2017e-03  8.7355e-03  0:03:34 1989
  2012  2.0035e-03  1.3597e-02  5.8432e-03  7.4225e-02  1.8847e-03  8.7942e-03  0:02:51 1988
  2013  1.7535e-03  1.2633e-02  5.3657e-03  7.2509e-02  1.6417e-03  8.8651e-03  0:02:17 1987
  2014  1.5467e-03  1.1785e-02  4.9231e-03  7.0701e-02  1.4425e-03  8.9459e-03  0:01:49 1986
  2015  1.3714e-03  1.1040e-02  4.5329e-03  6.8494e-02  1.2748e-03  9.0356e-03  0:01:27 1985
  2016  1.2267e-03  1.0413e-02  4.1994e-03  6.6104e-02  1.1379e-03  9.1336e-03  0:01:10 1984
  2017  1.1053e-03  9.8733e-03  3.9237e-03  6.3930e-02  1.0233e-03  9.2394e-03  0:00:56 1983
  2018  1.0071e-03  9.3908e-03  3.6817e-03  6.2155e-02  9.3083e-04  9.3527e-03  0:07:21 1982
  2019  9.2925e-04  8.9619e-03  3.4570e-03  6.0758e-02  8.5775e-04  9.4735e-03  0:05:53 1981
  2020  8.6408e-04  8.5710e-03  3.2374e-03  5.9858e-02  7.9644e-04  9.6016e-03  0:04:42 1980
  2021  8.1163e-04  8.2112e-03  3.0189e-03  5.9578e-02  7.4741e-04  9.7369e-03  0:03:45 1979

  iter  continuity  x-velocity  y-velocity  z-velocity      energy         nut     time/iter
  2022  7.7247e-04  7.8807e-03  2.8035e-03  6.0046e-02  7.1153e-04  9.8791e-03  0:03:00 1978
  2023  7.3283e-04  7.5598e-03  2.5748e-03  6.1502e-02  6.7417e-04  1.0028e-02  0:02:24 1977
  2024  7.1194e-04  7.2743e-03  2.3821e-03  6.4145e-02  6.5608e-04  1.0183e-02  0:01:55 1976
  2025  7.0426e-04  7.0208e-03  2.1947e-03  6.8231e-02  6.5103e-04  1.0345e-02  0:01:32 1975
  2026  7.0268e-04  6.7826e-03  2.0156e-03  7.3904e-02  6.5202e-04  1.0512e-02  0:01:14 1974
  2027  6.9392e-04  6.5277e-03  1.8470e-03  8.1292e-02  6.4583e-04  1.0684e-02  0:00:59 1973
  2028  6.3974e-04  6.1737e-03  1.7083e-03  9.0451e-02  5.9463e-04  1.0861e-02  0:00:47 1972
  2029  6.2884e-04  5.9040e-03  1.5789e-03  1.0132e-01  5.9010e-04  1.1042e-02  0:00:38 1971
  2030  6.4929e-04  5.6703e-03  1.4622e-03  1.1374e-01  6.1787e-04  1.1226e-02  0:00:30 1970
  2031  6.8400e-04  5.4539e-03  1.3605e-03  1.2751e-01  6.5935e-04  1.1413e-02  0:00:24 1969
  2032  7.2624e-04  5.2604e-03  1.2884e-03  1.4237e-01  7.0781e-04  1.1601e-02  0:00:19 1968

  iter  continuity  x-velocity  y-velocity  z-velocity      energy         nut     time/iter
  2033  7.8545e-04  5.0917e-03  1.2348e-03  1.5802e-01  7.7183e-04  1.1789e-02  0:00:15 1967
  2034  8.5376e-04  4.9365e-03  1.2003e-03  1.7408e-01  8.4369e-04  1.1976e-02  0:00:12 1966
  2035  9.2771e-04  4.7997e-03  1.1825e-03  1.9017e-01  9.2007e-04  1.2161e-02  0:00:10 1965
  2036  1.0044e-03  4.6809e-03  1.1790e-03  2.0587e-01  9.9836e-04  1.2343e-02  0:00:08 1964
  2037  1.0806e-03  4.5790e-03  1.1839e-03  2.2072e-01  1.0756e-03  1.2519e-02  0:06:39 1963
  2038  1.1558e-03  4.5027e-03  1.2041e-03  2.3425e-01  1.1512e-03  1.2688e-02  0:05:19 1962
  2039  1.2302e-03  4.4379e-03  1.2405e-03  2.4604e-01  1.2253e-03  1.2850e-02  0:04:15 1961
  2040  1.3002e-03  4.3760e-03  1.2875e-03  2.5569e-01  1.2945e-03  1.3001e-02  0:03:24 1960
  2041  1.3659e-03  4.3164e-03  1.3449e-03  2.6291e-01  1.3587e-03  1.3140e-02  0:02:43 1959
  2042  1.4274e-03  4.2599e-03  1.4158e-03  2.6746e-01  1.4184e-03  1.3266e-02  0:02:10 1958
  2043  1.4843e-03  4.2056e-03  1.5008e-03  2.6918e-01  1.4730e-03  1.3377e-02  0:01:44 1957

  iter  continuity  x-velocity  y-velocity  z-velocity      energy         nut     time/iter
  2044  1.5360e-03  4.1527e-03  1.6005e-03  2.6805e-01  1.5220e-03  1.3471e-02  0:01:23 1956
  2045  1.5813e-03  4.1010e-03  1.7160e-03  2.6408e-01  1.5643e-03  1.3546e-02  0:01:07 1955
  2046  1.6194e-03  4.0501e-03  1.8425e-03  2.5737e-01  1.5990e-03  1.3602e-02  0:00:53 1954
  2047  1.6491e-03  4.0017e-03  1.9779e-03  2.4775e-01  1.6249e-03  1.3636e-02  0:00:43 1953
  2048  1.6714e-03  3.9571e-03  2.1290e-03  2.3620e-01  1.6432e-03  1.3648e-02  0:00:34 1952
  2049  1.6852e-03  3.9172e-03  2.2923e-03  2.2366e-01  1.6525e-03  1.3637e-02  0:00:27 1951
  2050  1.6898e-03  3.8800e-03  2.4658e-03  2.0988e-01  1.6525e-03  1.3601e-02  0:00:22 1950
  2051  1.6856e-03  3.8504e-03  2.6442e-03  1.9539e-01  1.6435e-03  1.3541e-02  0:00:17 1949
  2052  1.6723e-03  3.8306e-03  2.8260e-03  1.8083e-01  1.6251e-03  1.3455e-02  0:00:14 1948
  2053  1.6493e-03  3.8224e-03  3.0096e-03  1.6706e-01  1.5969e-03  1.3345e-02  0:00:11 1947
  2054  1.6160e-03  3.8280e-03  3.1923e-03  1.5499e-01  1.5582e-03  1.3209e-02  0:00:09 1946

  iter  continuity  x-velocity  y-velocity  z-velocity      energy         nut     time/iter
  2055  1.5720e-03  3.8595e-03  3.3713e-03  1.4542e-01  1.5089e-03  1.3049e-02  0:00:07 1945
  2056  1.5222e-03  3.9055e-03  3.5579e-03  1.3893e-01  1.4539e-03  1.2864e-02  0:06:34 1944
  2057  1.4652e-03  3.9649e-03  3.7353e-03  1.3614e-01  1.3913e-03  1.2657e-02  0:05:15 1943
  2058  1.4010e-03  4.0397e-03  3.9005e-03  1.3703e-01  1.3214e-03  1.2427e-02  0:04:12 1942
  2059  1.3312e-03  4.1305e-03  4.0513e-03  1.4105e-01  1.2459e-03  1.2177e-02  0:03:22 1941
  2060  1.2580e-03  4.2373e-03  4.1878e-03  1.4733e-01  1.1670e-03  1.1908e-02  0:02:41 1940
  2061  1.1829e-03  4.3588e-03  4.3075e-03  1.5495e-01  1.0865e-03  1.1622e-02  0:02:09 1939
  2062  1.1077e-03  4.4925e-03  4.4102e-03  1.6314e-01  1.0059e-03  1.1321e-02  0:01:43 1938
  2063  1.0338e-03  4.6350e-03  4.4949e-03  1.7132e-01  9.2689e-04  1.1007e-02  0:01:22 1937
  2064  9.6409e-04  4.7853e-03  4.5603e-03  1.7901e-01  8.5289e-04  1.0682e-02  0:01:06 1936
  2065  8.9698e-04  4.9033e-03  4.6006e-03  1.8590e-01  7.8160e-04  1.0348e-02  0:00:53 1935

  iter  continuity  x-velocity  y-velocity  z-velocity      energy         nut     time/iter
  2066  8.3760e-04  5.0418e-03  4.6204e-03  1.9163e-01  7.1950e-04  1.0008e-02  0:00:42 1934
  2067  7.8461e-04  5.1575e-03  4.6233e-03  1.9692e-01  6.6561e-04  9.6631e-03  0:00:34 1933
  2068  7.4210e-04  5.2762e-03  4.6096e-03  2.0110e-01  6.2480e-04  9.3165e-03  0:00:27 1932
  2069  7.0695e-04  5.3891e-03  4.5776e-03  2.0390e-01  5.9319e-04  8.9696e-03  0:00:22 1931
  2070  6.7853e-04  5.4902e-03  4.5280e-03  2.0531e-01  5.7000e-04  8.6244e-03  0:00:17 1930
  2071  6.5561e-04  5.5753e-03  4.4600e-03  2.0549e-01  5.5354e-04  8.2825e-03  0:00:14 1929
  2072  6.3854e-04  5.6427e-03  4.3756e-03  2.0455e-01  5.4393e-04  7.9456e-03  0:00:11 1928
  2073  6.2623e-04  5.6916e-03  4.2759e-03  2.0255e-01  5.3961e-04  7.6153e-03  0:00:09 1927
  2074  6.1663e-04  5.7219e-03  4.1622e-03  1.9957e-01  5.3800e-04  7.2927e-03  0:00:07 1926
  2075  6.0785e-04  5.7337e-03  4.0357e-03  1.9573e-01  5.3685e-04  6.9790e-03  0:06:31 1925
  2076  5.9815e-04  5.7266e-03  3.8983e-03  1.9117e-01  5.3417e-04  6.6750e-03  0:05:12 1924

  iter  continuity  x-velocity  y-velocity  z-velocity      energy         nut     time/iter
  2077  5.8727e-04  5.7008e-03  3.7512e-03  1.8600e-01  5.2973e-04  6.3813e-03  0:04:10 1923
  2078  5.7448e-04  5.6569e-03  3.5961e-03  1.8033e-01  5.2279e-04  6.0986e-03  0:03:20 1922
  2079  5.5950e-04  5.5959e-03  3.4351e-03  1.7422e-01  5.1310e-04  5.8271e-03  0:02:40 1921
  2080  5.4131e-04  5.5186e-03  3.2705e-03  1.6773e-01  4.9962e-04  5.5673e-03  0:02:08 1920
  2081  5.2017e-04  5.4266e-03  3.1037e-03  1.6093e-01  4.8268e-04  5.3191e-03  0:01:42 1919
  2082  4.9056e-04  5.3318e-03  2.9201e-03  1.5390e-01  4.5670e-04  5.0827e-03  0:01:22 1918
  2083  4.5996e-04  5.2266e-03  2.7473e-03  1.4670e-01  4.2916e-04  4.8579e-03  0:01:05 1917
  2084  4.3445e-04  5.1023e-03  2.5863e-03  1.3934e-01  4.0630e-04  4.6447e-03  0:00:52 1916
  2085  4.1182e-04  4.9704e-03  2.4287e-03  1.3213e-01  3.8582e-04  4.4427e-03  0:00:42 1915
  2086  3.9080e-04  4.8359e-03  2.2747e-03  1.2527e-01  3.6646e-04  4.2518e-03  0:00:33 1914
  2087  3.7044e-04  4.7009e-03  2.1257e-03  1.1900e-01  3.4737e-04  4.0716e-03  0:00:27 1913

  iter  continuity  x-velocity  y-velocity  z-velocity      energy         nut     time/iter
  2088  3.5045e-04  4.5662e-03  1.9834e-03  1.1349e-01  3.2837e-04  3.9017e-03  0:00:21 1912
  2089  3.3102e-04  4.4328e-03  1.8488e-03  1.0892e-01  3.0969e-04  3.7417e-03  0:00:17 1911
  2090  3.1256e-04  4.3015e-03  1.7224e-03  1.0541e-01  2.9178e-04  3.5911e-03  0:00:14 1910
  2091  2.9553e-04  4.1733e-03  1.6046e-03  1.0305e-01  2.7512e-04  3.4495e-03  0:00:11 1909
  2092  2.8014e-04  4.0487e-03  1.4956e-03  1.0187e-01  2.5993e-04  3.3166e-03  0:00:09 1908
  2093  2.6676e-04  3.9290e-03  1.3948e-03  1.0178e-01  2.4663e-04  3.1919e-03  0:00:07 1907
  2094  2.5544e-04  3.8142e-03  1.3023e-03  1.0264e-01  2.3526e-04  3.0748e-03  0:06:27 1906
  2095  2.4611e-04  3.7046e-03  1.2177e-03  1.0430e-01  2.2584e-04  2.9651e-03  0:05:09 1905
  2096  2.3887e-04  3.6083e-03  1.1344e-03  1.0649e-01  2.1867e-04  2.8622e-03  0:04:07 1904
  2097  2.3087e-04  3.5187e-03  1.0591e-03  1.0926e-01  2.1095e-04  2.7658e-03  0:03:18 1903
  2098  2.2256e-04  3.4271e-03  9.9369e-04  1.1184e-01  2.0299e-04  2.6754e-03  0:02:38 1902

  iter  continuity  x-velocity  y-velocity  z-velocity      energy         nut     time/iter
  2099  2.1523e-04  3.3349e-03  9.3563e-04  1.1400e-01  1.9589e-04  2.5907e-03  0:02:06 1901
  2100  2.0916e-04  3.2449e-03  8.8339e-04  1.1564e-01  1.8993e-04  2.5113e-03  0:01:41 1900
  2101  2.0408e-04  3.1591e-03  8.3596e-04  1.1674e-01  1.8490e-04  2.4369e-03  0:01:21 1899
  2102  1.9967e-04  3.0786e-03  7.9269e-04  1.1724e-01  1.8061e-04  2.3671e-03  0:01:05 1898
  2103  1.9571e-04  3.0033e-03  7.5308e-04  1.1710e-01  1.7689e-04  2.3017e-03  0:00:52 1897
  2104  1.9197e-04  2.9328e-03  7.1674e-04  1.1626e-01  1.7354e-04  2.2404e-03  0:00:41 1896
  2105  1.8829e-04  2.8665e-03  6.8333e-04  1.1471e-01  1.7039e-04  2.1827e-03  0:00:33 1895
  2106  1.8457e-04  2.8040e-03  6.5249e-04  1.1245e-01  1.6731e-04  2.1285e-03  0:00:26 1894
  2107  1.8070e-04  2.7443e-03  6.2458e-04  1.0949e-01  1.6417e-04  2.0775e-03  0:00:21 1893
  2108  1.7653e-04  2.6872e-03  5.9929e-04  1.0584e-01  1.6073e-04  2.0297e-03  0:00:17 1892
  2109  1.7250e-04  2.6333e-03  5.7475e-04  1.0161e-01  1.5746e-04  1.9847e-03  0:00:14 1891

  iter  continuity  x-velocity  y-velocity  z-velocity      energy         nut     time/iter
  2110  1.6838e-04  2.5821e-03  5.5091e-04  9.6833e-02  1.5414e-04  1.9424e-03  0:06:29 1890
  2111  1.6408e-04  2.5334e-03  5.2827e-04  9.1629e-02  1.5068e-04  1.9026e-03  0:05:11 1889
  2112  1.5967e-04  2.4867e-03  5.0689e-04  8.6142e-02  1.4710e-04  1.8650e-03  0:04:09 1888
  2113  1.5522e-04  2.4416e-03  4.8667e-04  8.0512e-02  1.4344e-04  1.8297e-03  0:03:19 1887
  2114  1.5078e-04  2.3980e-03  4.6744e-04  7.4827e-02  1.3972e-04  1.7964e-03  0:02:39 1886
  2115  1.4641e-04  2.3556e-03  4.4907e-04  6.9269e-02  1.3598e-04  1.7650e-03  0:02:07 1885
  2116  1.4216e-04  2.3144e-03  4.3147e-04  6.4073e-02  1.3226e-04  1.7353e-03  0:01:42 1884
  2117  1.3807e-04  2.2744e-03  4.1460e-04  5.9524e-02  1.2860e-04  1.7073e-03  0:01:21 1883
  2118  1.3423e-04  2.2356e-03  3.9841e-04  5.5905e-02  1.2506e-04  1.6809e-03  0:01:05 1882
  2119  1.3068e-04  2.1980e-03  3.8291e-04  5.3507e-02  1.2169e-04  1.6560e-03  0:00:52 1881
  2120  1.2747e-04  2.1615e-03  3.6808e-04  5.2510e-02  1.1854e-04  1.6325e-03  0:00:42 1880

  iter  continuity  x-velocity  y-velocity  z-velocity      energy         nut     time/iter
  2121  1.2465e-04  2.1261e-03  3.5392e-04  5.2973e-02  1.1567e-04  1.6102e-03  0:00:33 1879
  2122  1.2227e-04  2.0919e-03  3.4043e-04  5.4814e-02  1.1312e-04  1.5891e-03  0:00:27 1878
  2123  1.2038e-04  2.0588e-03  3.2760e-04  5.7971e-02  1.1094e-04  1.5691e-03  0:00:21 1877
  2124  1.1898e-04  2.0266e-03  3.1544e-04  6.2145e-02  1.0918e-04  1.5502e-03  0:00:17 1876
  2125  1.1809e-04  1.9955e-03  3.0401e-04  6.7125e-02  1.0786e-04  1.5323e-03  0:00:14 1875
  2126  1.1770e-04  1.9654e-03  2.9334e-04  7.2715e-02  1.0699e-04  1.5153e-03  0:00:11 1874
  2127  1.1778e-04  1.9364e-03  2.8348e-04  7.8673e-02  1.0655e-04  1.4993e-03  0:00:09 1873
  2128  1.1827e-04  1.9085e-03  2.7442e-04  8.4847e-02  1.0652e-04  1.4841e-03  0:06:21 1872
  2129  1.1911e-04  1.8818e-03  2.6616e-04  9.1066e-02  1.0684e-04  1.4697e-03  0:05:05 1871
  2130  1.2024e-04  1.8563e-03  2.5873e-04  9.7112e-02  1.0746e-04  1.4560e-03  0:04:04 1870
  2131  1.2157e-04  1.8320e-03  2.5212e-04  1.0294e-01  1.0832e-04  1.4430e-03  0:03:15 1869

  iter  continuity  x-velocity  y-velocity  z-velocity      energy         nut     time/iter
  2132  1.2302e-04  1.8090e-03  2.4631e-04  1.0847e-01  1.0934e-04  1.4308e-03  0:02:36 1868
  2133  1.2449e-04  1.7871e-03  2.4128e-04  1.1362e-01  1.1042e-04  1.4191e-03  0:02:05 1867
  2134  1.2589e-04  1.7665e-03  2.3698e-04  1.1833e-01  1.1146e-04  1.4080e-03  0:01:40 1866
  2135  1.2712e-04  1.7469e-03  2.3341e-04  1.2259e-01  1.1239e-04  1.3975e-03  0:01:20 1865
  2136  1.2812e-04  1.7286e-03  2.3052e-04  1.2643e-01  1.1312e-04  1.3875e-03  0:01:04 1864
  2137  1.2880e-04  1.7113e-03  2.2828e-04  1.2915e-01  1.1358e-04  1.3780e-03  0:00:51 1863
  2138  1.2910e-04  1.6951e-03  2.2664e-04  1.3133e-01  1.1371e-04  1.3690e-03  0:00:41 1862
  2139  1.2897e-04  1.6798e-03  2.2556e-04  1.3301e-01  1.1345e-04  1.3605e-03  0:00:33 1861
  2140  1.2836e-04  1.6654e-03  2.2498e-04  1.3399e-01  1.1277e-04  1.3525e-03  0:00:26 1860
  2141  1.2726e-04  1.6519e-03  2.2483e-04  1.3439e-01  1.1165e-04  1.3448e-03  0:00:21 1859
  2142  1.2564e-04  1.6389e-03  2.2505e-04  1.3413e-01  1.1007e-04  1.3374e-03  0:00:17 1858

  iter  continuity  x-velocity  y-velocity  z-velocity      energy         nut     time/iter
  2143  1.2350e-04  1.6264e-03  2.2554e-04  1.3315e-01  1.0803e-04  1.3304e-03  0:00:13 1857
  2144  1.2085e-04  1.6143e-03  2.2625e-04  1.3138e-01  1.0555e-04  1.3238e-03  0:00:11 1856
  2145  1.1771e-04  1.6024e-03  2.2711e-04  1.2895e-01  1.0266e-04  1.3174e-03  0:00:09 1855
  2146  1.1412e-04  1.5907e-03  2.2804e-04  1.2589e-01  9.9417e-05  1.3114e-03  0:00:07 1854
  2147  1.1014e-04  1.5793e-03  2.2896e-04  1.2242e-01  9.5877e-05  1.3056e-03  0:06:16 1853
  2148  1.0581e-04  1.5680e-03  2.2979e-04  1.1880e-01  9.2111e-05  1.3001e-03  0:05:01 1852
  2149  1.0122e-04  1.5567e-03  2.3044e-04  1.1479e-01  8.8204e-05  1.2948e-03  0:04:00 1851
  2150  9.6446e-05  1.5456e-03  2.3083e-04  1.1042e-01  8.4254e-05  1.2898e-03  0:03:12 1850
  2151  9.1591e-05  1.5345e-03  2.3089e-04  1.0571e-01  8.0379e-05  1.2850e-03  0:02:34 1849
  2152  8.6776e-05  1.5233e-03  2.3054e-04  1.0072e-01  7.6712e-05  1.2804e-03  0:02:03 1848
  2153  8.2089e-05  1.5121e-03  2.2973e-04  9.5520e-02  7.3342e-05  1.2760e-03  0:01:38 1847

  iter  continuity  x-velocity  y-velocity  z-velocity      energy         nut     time/iter
  2154  7.7754e-05  1.5009e-03  2.2841e-04  9.0205e-02  7.0494e-05  1.2717e-03  0:01:19 1846
  2155  7.3861e-05  1.4896e-03  2.2652e-04  8.4885e-02  6.8229e-05  1.2677e-03  0:01:03 1845
  2156  7.0537e-05  1.4781e-03  2.2405e-04  7.9637e-02  6.6625e-05  1.2639e-03  0:00:50 1844
  2157  6.7889e-05  1.4665e-03  2.2097e-04  7.4497e-02  6.5723e-05  1.2601e-03  0:00:40 1843
  2158  6.5994e-05  1.4548e-03  2.1727e-04  6.9516e-02  6.5514e-05  1.2565e-03  0:00:32 1842
  2159  6.4880e-05  1.4430e-03  2.1296e-04  6.4760e-02  6.5942e-05  1.2530e-03  0:00:26 1841
  2160  6.4519e-05  1.4310e-03  2.0806e-04  6.0301e-02  6.6907e-05  1.2496e-03  0:00:21 1840
  2161  6.4833e-05  1.4189e-03  2.0260e-04  5.6174e-02  6.8285e-05  1.2463e-03  0:00:16 1839
  2162  6.5698e-05  1.4067e-03  1.9663e-04  5.2358e-02  6.9938e-05  1.2431e-03  0:00:13 1838
  2163  6.6968e-05  1.3942e-03  1.9023e-04  4.8925e-02  7.1724e-05  1.2401e-03  0:00:10 1837
  2164  6.8492e-05  1.3815e-03  1.8345e-04  4.5889e-02  7.3516e-05  1.2371e-03  0:00:08 1836

  iter  continuity  x-velocity  y-velocity  z-velocity      energy         nut     time/iter
  2165  7.0120e-05  1.3687e-03  1.7638e-04  4.3244e-02  7.5199e-05  1.2342e-03  0:00:07 1835
  2166  7.1735e-05  1.3558e-03  1.6911e-04  4.0959e-02  7.6686e-05  1.2314e-03  0:00:05 1834
  2167  7.3221e-05  1.3428e-03  1.6174e-04  3.9024e-02  7.7898e-05  1.2285e-03  0:06:11 1833
  2168  7.4489e-05  1.3297e-03  1.5438e-04  3.7385e-02  7.8770e-05  1.2258e-03  0:04:57 1832
  2169  7.5475e-05  1.3167e-03  1.4718e-04  3.6003e-02  7.9267e-05  1.2231e-03  0:03:57 1831
  2170  7.6107e-05  1.3038e-03  1.4027e-04  3.4839e-02  7.9339e-05  1.2205e-03  0:03:10 1830
  2171  7.6370e-05  1.2910e-03  1.3379e-04  3.3799e-02  7.8990e-05  1.2179e-03  0:02:32 1829
  2172  7.6261e-05  1.2784e-03  1.2788e-04  3.2873e-02  7.8230e-05  1.2153e-03  0:02:01 1828
  2173  7.5773e-05  1.2660e-03  1.2268e-04  3.2060e-02  7.7069e-05  1.2129e-03  0:01:37 1827
  2174  7.4917e-05  1.2538e-03  1.1828e-04  3.1331e-02  7.5530e-05  1.2103e-03  0:01:17 1826
  2175  7.3709e-05  1.2418e-03  1.1476e-04  3.0649e-02  7.3640e-05  1.2078e-03  0:01:02 1825

  iter  continuity  x-velocity  y-velocity  z-velocity      energy         nut     time/iter
  2176  7.2177e-05  1.2301e-03  1.1216e-04  3.0010e-02  7.1439e-05  1.2053e-03  0:00:50 1824
  2177  7.0363e-05  1.2187e-03  1.1045e-04  2.9396e-02  6.8980e-05  1.2028e-03  0:00:40 1823
  2178  6.8315e-05  1.2075e-03  1.0957e-04  2.8777e-02  6.6323e-05  1.2003e-03  0:00:32 1822
  2179  6.6090e-05  1.1966e-03  1.0943e-04  2.8180e-02  6.3536e-05  1.1978e-03  0:00:25 1821
  2180  6.3745e-05  1.1859e-03  1.0988e-04  2.7579e-02  6.0688e-05  1.1954e-03  0:00:20 1820
  2181  6.1343e-05  1.1755e-03  1.1078e-04  2.6957e-02  5.7855e-05  1.1929e-03  0:00:16 1819
  2182  5.8951e-05  1.1652e-03  1.1196e-04  2.6380e-02  5.5116e-05  1.1904e-03  0:00:13 1818
  2183  5.6637e-05  1.1552e-03  1.1329e-04  2.5874e-02  5.2551e-05  1.1879e-03  0:00:10 1817
  2184  5.4469e-05  1.1453e-03  1.1462e-04  2.5429e-02  5.0242e-05  1.1854e-03  0:00:08 1816
  2185  5.2511e-05  1.1355e-03  1.1583e-04  2.5069e-02  4.8263e-05  1.1828e-03  0:06:10 1815
  2186  5.0821e-05  1.1259e-03  1.1682e-04  2.4814e-02  4.6675e-05  1.1802e-03  0:04:56 1814

  iter  continuity  x-velocity  y-velocity  z-velocity      energy         nut     time/iter
  2187  4.9442e-05  1.1163e-03  1.1750e-04  2.4664e-02  4.5519e-05  1.1776e-03  0:03:56 1813
  2188  4.8397e-05  1.1069e-03  1.1781e-04  2.4604e-02  4.4804e-05  1.1750e-03  0:03:09 1812
  2189  4.7690e-05  1.0976e-03  1.1770e-04  2.4607e-02  4.4512e-05  1.1723e-03  0:02:31 1811
  2190  4.7314e-05  1.0884e-03  1.1715e-04  2.4684e-02  4.4610e-05  1.1695e-03  0:02:01 1810
  2191  4.7228e-05  1.0793e-03  1.1614e-04  2.4850e-02  4.5024e-05  1.1668e-03  0:01:37 1809
  2192  4.7389e-05  1.0702e-03  1.1468e-04  2.5069e-02  4.5685e-05  1.1640e-03  0:01:17 1808
  2193  4.7748e-05  1.0611e-03  1.1277e-04  2.5347e-02  4.6517e-05  1.1612e-03  0:01:02 1807
  2194  4.8240e-05  1.0519e-03  1.1045e-04  2.5703e-02  4.7443e-05  1.1583e-03  0:00:49 1806
  2195  4.8803e-05  1.0426e-03  1.0776e-04  2.6146e-02  4.8387e-05  1.1554e-03  0:00:39 1805
  2196  4.9385e-05  1.0334e-03  1.0473e-04  2.6676e-02  4.9294e-05  1.1524e-03  0:00:32 1804
  2197  4.9928e-05  1.0241e-03  1.0141e-04  2.7255e-02  5.0104e-05  1.1493e-03  0:00:25 1803

  iter  continuity  x-velocity  y-velocity  z-velocity      energy         nut     time/iter
  2198  5.0396e-05  1.0148e-03  9.7848e-05  2.7866e-02  5.0784e-05  1.1463e-03  0:00:20 1802
  2199  5.0764e-05  1.0055e-03  9.4086e-05  2.8498e-02  5.1315e-05  1.1431e-03  0:00:16 1801
  2200  5.1010e-05  9.9601e-04  9.0175e-05  2.9148e-02  5.1679e-05  1.1400e-03  0:00:13 1800
  2201  5.1118e-05  9.8642e-04  8.6170e-05  2.9765e-02  5.1866e-05  1.1368e-03  0:00:10 1799
  2202  5.1082e-05  9.7672e-04  8.2126e-05  3.0352e-02  5.1874e-05  1.1335e-03  0:00:08 1798
  2203  5.0918e-05  9.6689e-04  7.8098e-05  3.0893e-02  5.1724e-05  1.1302e-03  0:00:07 1797
  2204  5.0619e-05  9.5694e-04  7.4145e-05  3.1382e-02  5.1415e-05  1.1269e-03  0:06:04 1796
  2205  5.0207e-05  9.4684e-04  7.0326e-05  3.1828e-02  5.0973e-05  1.1235e-03  0:04:51 1795
  2206  4.9711e-05  9.3664e-04  6.6688e-05  3.2199e-02  5.0431e-05  1.1200e-03  0:03:53 1794
  2207  4.9158e-05  9.2634e-04  6.3275e-05  3.2490e-02  4.9818e-05  1.1164e-03  0:03:06 1793
  2208  4.8579e-05  9.1604e-04  6.0127e-05  3.2713e-02  4.9169e-05  1.1129e-03  0:02:29 1792

  iter  continuity  x-velocity  y-velocity  z-velocity      energy         nut     time/iter
  2209  4.8015e-05  9.0568e-04  5.7268e-05  3.2881e-02  4.8527e-05  1.1093e-03  0:01:59 1791
  2210  4.7491e-05  8.9526e-04  5.4734e-05  3.2966e-02  4.7917e-05  1.1056e-03  0:01:35 1790
  2211  4.7067e-05  8.8481e-04  5.2567e-05  3.2983e-02  4.7401e-05  1.1019e-03  0:01:16 1789
  2212  4.6798e-05  8.7432e-04  5.0752e-05  3.2899e-02  4.7034e-05  1.0981e-03  0:01:01 1788
  2213  4.6659e-05  8.6374e-04  4.9269e-05  3.2702e-02  4.6794e-05  1.0943e-03  0:00:49 1787
  2214  4.6625e-05  8.5319e-04  4.8115e-05  3.2402e-02  4.6656e-05  1.0905e-03  0:00:39 1786
  2215  4.6695e-05  8.4265e-04  4.7277e-05  3.2031e-02  4.6619e-05  1.0866e-03  0:00:31 1785
  2216  4.6870e-05  8.3212e-04  4.6734e-05  3.1616e-02  4.6685e-05  1.0826e-03  0:00:25 1784
  2217  4.7144e-05  8.2161e-04  4.6461e-05  3.1137e-02  4.6847e-05  1.0786e-03  0:00:20 1783
  2218  4.7506e-05  8.1111e-04  4.6434e-05  3.0611e-02  4.7096e-05  1.0745e-03  0:00:16 1782
  2219  4.7941e-05  8.0059e-04  4.6633e-05  3.0096e-02  4.7416e-05  1.0704e-03  0:00:13 1781

  iter  continuity  x-velocity  y-velocity  z-velocity      energy         nut     time/iter
  2220  4.8420e-05  7.9007e-04  4.7018e-05  2.9596e-02  4.7780e-05  1.0662e-03  0:00:10 1780
  2221  4.8918e-05  7.7956e-04  4.7572e-05  2.9177e-02  4.8163e-05  1.0619e-03  0:00:08 1779
  2222  4.9409e-05  7.6907e-04  4.8277e-05  2.8886e-02  4.8543e-05  1.0575e-03  0:00:06 1778
  2223  4.9869e-05  7.5858e-04  4.9121e-05  2.8739e-02  4.8892e-05  1.0531e-03  0:00:05 1777
  2224  5.0275e-05  7.4813e-04  5.0088e-05  2.8744e-02  4.9188e-05  1.0485e-03  0:05:59 1776
  2225  5.0607e-05  7.3775e-04  5.1165e-05  2.8885e-02  4.9413e-05  1.0440e-03  0:04:47 1775
  2226  5.0851e-05  7.2743e-04  5.2335e-05  2.9192e-02  4.9552e-05  1.0393e-03  0:03:50 1774
  2227  5.1000e-05  7.1717e-04  5.3581e-05  2.9694e-02  4.9600e-05  1.0346e-03  0:03:04 1773
  2228  5.1048e-05  7.0697e-04  5.4888e-05  3.0245e-02  4.9553e-05  1.0297e-03  0:02:27 1772
  2229  5.0997e-05  6.9683e-04  5.6239e-05  3.0872e-02  4.9412e-05  1.0248e-03  0:01:57 1771
  2230  5.0851e-05  6.8674e-04  5.7614e-05  3.1531e-02  4.9183e-05  1.0199e-03  0:01:34 1770

  iter  continuity  x-velocity  y-velocity  z-velocity      energy         nut     time/iter
  2231  5.0619e-05  6.7671e-04  5.8997e-05  3.2184e-02  4.8873e-05  1.0148e-03  0:01:15 1769
  2232  5.0309e-05  6.6673e-04  6.0369e-05  3.2825e-02  4.8495e-05  1.0096e-03  0:01:00 1768
  2233  4.9934e-05  6.5680e-04  6.1715e-05  3.3429e-02  4.8060e-05  1.0044e-03  0:00:48 1767
  2234  4.9508e-05  6.4692e-04  6.3018e-05  3.3986e-02  4.7583e-05  9.9910e-04  0:00:38 1766
  2235  4.9045e-05  6.3711e-04  6.4263e-05  3.4474e-02  4.7077e-05  9.9371e-04  0:00:31 1765
  2236  4.8547e-05  6.2737e-04  6.5434e-05  3.4871e-02  4.6547e-05  9.8822e-04  0:00:25 1764
  2237  4.8052e-05  6.1770e-04  6.6520e-05  3.5164e-02  4.6030e-05  9.8265e-04  0:00:20 1763
  2238  4.7573e-05  6.0812e-04  6.7508e-05  3.5373e-02  4.5537e-05  9.7699e-04  0:00:16 1762
  2239  4.7121e-05  5.9862e-04  6.8387e-05  3.5508e-02  4.5083e-05  9.7125e-04  0:00:13 1761
  2240  4.6706e-05  5.8920e-04  6.9149e-05  3.5548e-02  4.4673e-05  9.6541e-04  0:00:10 1760
  2241  4.6336e-05  5.7987e-04  6.9789e-05  3.5592e-02  4.4316e-05  9.5948e-04  0:00:08 1759

  iter  continuity  x-velocity  y-velocity  z-velocity      energy         nut     time/iter
  2242  4.6017e-05  5.7063e-04  7.0302e-05  3.5589e-02  4.4018e-05  9.5343e-04  0:05:58 1758
  2243  4.5755e-05  5.6148e-04  7.0688e-05  3.5527e-02  4.3781e-05  9.4728e-04  0:04:46 1757
  2244  4.5548e-05  5.5242e-04  7.0949e-05  3.5402e-02  4.3605e-05  9.4104e-04  0:03:49 1756
  2245  4.5393e-05  5.4345e-04  7.1085e-05  3.5419e-02  4.3484e-05  9.3472e-04  0:03:03 1755
  2246  4.5286e-05  5.3457e-04  7.1105e-05  3.4804e-02  4.3413e-05  9.2830e-04  0:02:26 1754
  2247  4.5221e-05  5.2578e-04  7.1014e-05  3.3254e-02  4.3383e-05  9.2180e-04  0:01:57 1753
  2248  4.5189e-05  5.1708e-04  7.0821e-05  3.1541e-02  4.3387e-05  9.1520e-04  0:01:34 1752
  2249  4.5183e-05  5.0849e-04  7.0534e-05  3.0039e-02  4.3415e-05  9.0851e-04  0:01:15 1751
  2250  4.5195e-05  4.9999e-04  7.0163e-05  2.8662e-02  4.3458e-05  9.0172e-04  0:01:00 1750
  2251  4.5216e-05  4.9159e-04  6.9717e-05  2.7364e-02  4.3508e-05  8.9481e-04  0:00:48 1749
  2252  4.5241e-05  4.8329e-04  6.9206e-05  2.6146e-02  4.3558e-05  8.8781e-04  0:00:38 1748

  iter  continuity  x-velocity  y-velocity  z-velocity      energy         nut     time/iter
  2253  4.5263e-05  4.7508e-04  6.8643e-05  2.4969e-02  4.3601e-05  8.8070e-04  0:00:31 1747
  2254  4.5278e-05  4.6698e-04  6.8035e-05  2.3850e-02  4.3635e-05  8.7350e-04  0:00:24 1746
  2255  4.5283e-05  4.5899e-04  6.7394e-05  2.2817e-02  4.3655e-05  8.6621e-04  0:00:20 1745
  2256  4.5277e-05  4.5111e-04  6.6728e-05  2.1797e-02  4.3661e-05  8.5884e-04  0:00:16 1744
  2257  4.5251e-05  4.4332e-04  6.6046e-05  2.0858e-02  4.3644e-05  8.5138e-04  0:00:12 1743
  2258  4.5202e-05  4.3564e-04  6.5359e-05  1.9949e-02  4.3600e-05  8.4384e-04  0:00:10 1742
  2259  4.5131e-05  4.2806e-04  6.4682e-05  1.9124e-02  4.3534e-05  8.3622e-04  0:00:08 1741
  2260  4.5045e-05  4.2059e-04  6.4020e-05  1.8375e-02  4.3449e-05  8.2853e-04  0:00:06 1740
  2261  4.4949e-05  4.1322e-04  6.3379e-05  1.7718e-02  4.3354e-05  8.2077e-04  0:05:53 1739
  2262  4.4841e-05  4.0598e-04  6.2765e-05  1.7144e-02  4.3246e-05  8.1293e-04  0:04:42 1738
  2263  4.4715e-05  3.9884e-04  6.2189e-05  1.6637e-02  4.3118e-05  8.0503e-04  0:03:46 1737

  iter  continuity  x-velocity  y-velocity  z-velocity      energy         nut     time/iter
  2264  4.4612e-05  3.9183e-04  6.1640e-05  1.6199e-02  4.3013e-05  7.9705e-04  0:03:00 1736
  2265  4.4485e-05  3.8495e-04  6.1123e-05  1.5824e-02  4.2884e-05  7.8901e-04  0:02:24 1735
  2266  4.4324e-05  3.7818e-04  6.0644e-05  1.5518e-02  4.2719e-05  7.8091e-04  0:01:55 1734
  2267  4.4128e-05  3.7154e-04  6.0204e-05  1.5273e-02  4.2520e-05  7.7274e-04  0:01:32 1733
  2268  4.3902e-05  3.6502e-04  5.9802e-05  1.5075e-02  4.2288e-05  7.6451e-04  0:01:14 1732
  2269  4.3647e-05  3.5863e-04  5.9439e-05  1.4899e-02  4.2028e-05  7.5622e-04  0:00:59 1731
  2270  4.3364e-05  3.5236e-04  5.9112e-05  1.4743e-02  4.1739e-05  7.4788e-04  0:00:47 1730
  2271  4.3052e-05  3.4621e-04  5.8819e-05  1.4601e-02  4.1421e-05  7.3948e-04  0:00:38 1729
  2272  4.2711e-05  3.4019e-04  5.8558e-05  1.4462e-02  4.1072e-05  7.3104e-04  0:00:30 1728
  2273  4.2340e-05  3.3428e-04  5.8326e-05  1.4333e-02  4.0693e-05  7.2255e-04  0:00:24 1727
  2274  4.1940e-05  3.2850e-04  5.8121e-05  1.4197e-02  4.0284e-05  7.1402e-04  0:00:19 1726

  iter  continuity  x-velocity  y-velocity  z-velocity      energy         nut     time/iter
  2275  4.1512e-05  3.2283e-04  5.7942e-05  1.4053e-02  3.9844e-05  7.0544e-04  0:00:15 1725
  2276  4.1055e-05  3.1729e-04  5.7785e-05  1.3904e-02  3.9375e-05  6.9683e-04  0:00:12 1724
  2277  4.0571e-05  3.1185e-04  5.7648e-05  1.3751e-02  3.8877e-05  6.8818e-04  0:00:10 1723
  2278  4.0063e-05  3.0653e-04  5.7531e-05  1.3596e-02  3.8352e-05  6.7950e-04  0:00:08 1722
  2279  3.9532e-05  3.0132e-04  5.7432e-05  1.3432e-02  3.7802e-05  6.7078e-04  0:00:06 1721
  2280  3.8982e-05  2.9622e-04  5.7348e-05  1.3264e-02  3.7229e-05  6.6204e-04  0:05:49 1720
  2281  3.8418e-05  2.9122e-04  5.7279e-05  1.3094e-02  3.6638e-05  6.5327e-04  0:04:39 1719
  2282  3.7842e-05  2.8634e-04  5.7223e-05  1.2925e-02  3.6031e-05  6.4448e-04  0:03:43 1718
  2283  3.7260e-05  2.8156e-04  5.7183e-05  1.2763e-02  3.5413e-05  6.3568e-04  0:02:58 1717
  2284  3.6690e-05  2.7688e-04  5.7158e-05  1.2616e-02  3.4802e-05  6.2685e-04  0:02:23 1716
  2285  3.6114e-05  2.7230e-04  5.7150e-05  1.2496e-02  3.4179e-05  6.1801e-04  0:01:54 1715

  iter  continuity  x-velocity  y-velocity  z-velocity      energy         nut     time/iter
  2286  3.5541e-05  2.6782e-04  5.7159e-05  1.2402e-02  3.3552e-05  6.0917e-04  0:01:31 1714
  2287  3.4979e-05  2.6345e-04  5.7188e-05  1.2346e-02  3.2928e-05  6.0031e-04  0:01:13 1713
  2288  3.4435e-05  2.5917e-04  5.7239e-05  1.2337e-02  3.2315e-05  5.9145e-04  0:00:58 1712
  2289  3.3913e-05  2.5500e-04  5.7318e-05  1.2382e-02  3.1717e-05  5.8259e-04  0:00:47 1711
  2290  3.3420e-05  2.5093e-04  5.7426e-05  1.2575e-02  3.1139e-05  5.7374e-04  0:00:37 1710
  2291  3.2958e-05  2.4696e-04  5.7567e-05  1.2929e-02  3.0583e-05  5.6489e-04  0:00:30 1709
  2292  3.2535e-05  2.4309e-04  5.7747e-05  1.3420e-02  3.0057e-05  5.5604e-04  0:00:24 1708
  2293  3.2154e-05  2.3933e-04  5.7968e-05  1.4018e-02  2.9564e-05  5.4721e-04  0:00:19 1707
  2294  3.1816e-05  2.3567e-04  5.8235e-05  1.4693e-02  2.9105e-05  5.3839e-04  0:00:15 1706
  2295  3.1524e-05  2.3212e-04  5.8551e-05  1.5435e-02  2.8684e-05  5.2958e-04  0:00:12 1705
  2296  3.1283e-05  2.2867e-04  5.8919e-05  1.6228e-02  2.8304e-05  5.2080e-04  0:00:10 1704

  iter  continuity  x-velocity  y-velocity  z-velocity      energy         nut     time/iter
  2297  3.1093e-05  2.2534e-04  5.9344e-05  1.7066e-02  2.7968e-05  5.1204e-04  0:00:08 1703
  2298  3.0957e-05  2.2212e-04  5.9828e-05  1.7948e-02  2.7679e-05  5.0331e-04  0:05:47 1702
  2299  3.0878e-05  2.1900e-04  6.0373e-05  1.8870e-02  2.7440e-05  4.9461e-04  0:04:37 1701
  2300  3.0856e-05  2.1601e-04  6.0981e-05  1.9830e-02  2.7253e-05  4.8594e-04  0:03:42 1700
  2301  3.0893e-05  2.1312e-04  6.1650e-05  2.0835e-02  2.7121e-05  4.7730e-04  0:02:57 1699
  2302  3.0989e-05  2.1036e-04  6.2383e-05  2.1879e-02  2.7044e-05  4.6870e-04  0:02:22 1698
  2303  3.1143e-05  2.0771e-04  6.3178e-05  2.2948e-02  2.7025e-05  4.6015e-04  0:01:53 1697
  2304  3.1356e-05  2.0517e-04  6.4034e-05  2.4023e-02  2.7064e-05  4.5163e-04  0:01:31 1696
  2305  3.1624e-05  2.0275e-04  6.4948e-05  2.5095e-02  2.7159e-05  4.4317e-04  0:01:12 1695
  2306  3.1945e-05  2.0044e-04  6.5918e-05  2.6153e-02  2.7310e-05  4.3475e-04  0:00:58 1694
  2307  3.2315e-05  1.9825e-04  6.6938e-05  2.7194e-02  2.7514e-05  4.2639e-04  0:00:46 1693

  iter  continuity  x-velocity  y-velocity  z-velocity      energy         nut     time/iter
  2308  3.2732e-05  1.9616e-04  6.8005e-05  2.8208e-02  2.7770e-05  4.1808e-04  0:00:37 1692
  2309  3.3190e-05  1.9419e-04  6.9113e-05  2.9189e-02  2.8071e-05  4.0982e-04  0:00:30 1691
  2310  3.3681e-05  1.9232e-04  7.0256e-05  3.0135e-02  2.8412e-05  4.0163e-04  0:00:24 1690
  2311  3.4201e-05  1.9055e-04  7.1428e-05  3.1044e-02  2.8789e-05  3.9350e-04  0:00:19 1689
  2312  3.4743e-05  1.8889e-04  7.2622e-05  3.1913e-02  2.9194e-05  3.8543e-04  0:05:53 1688
  2313  3.5300e-05  1.8732e-04  7.3832e-05  3.2740e-02  2.9621e-05  3.7744e-04  0:04:42 1687
  2314  3.5865e-05  1.8585e-04  7.5051e-05  3.3525e-02  3.0063e-05  3.6951e-04  0:03:45 1686
  2315  3.6431e-05  1.8446e-04  7.6272e-05  3.4270e-02  3.0513e-05  3.6165e-04  0:03:00 1685
  2316  3.6991e-05  1.8316e-04  7.7487e-05  3.4972e-02  3.0965e-05  3.5387e-04  0:02:24 1684
  2317  3.7537e-05  1.8194e-04  7.8689e-05  3.5634e-02  3.1410e-05  3.4616e-04  0:01:55 1683
  2318  3.8064e-05  1.8080e-04  7.9871e-05  3.6257e-02  3.1842e-05  3.3853e-04  0:01:32 1682

  iter  continuity  x-velocity  y-velocity  z-velocity      energy         nut     time/iter
  2319  3.8562e-05  1.7973e-04  8.1025e-05  3.6841e-02  3.2253e-05  3.3099e-04  0:01:14 1681
  2320  3.9026e-05  1.7872e-04  8.2145e-05  3.7383e-02  3.2636e-05  3.2353e-04  0:00:59 1680
  2321  3.9456e-05  1.7780e-04  8.3223e-05  3.7887e-02  3.2992e-05  3.1614e-04  0:00:47 1679
  2322  3.9844e-05  1.7694e-04  8.4254e-05  3.8348e-02  3.3313e-05  3.0885e-04  0:00:38 1678
  2323  4.0186e-05  1.7614e-04  8.5233e-05  3.8767e-02  3.3594e-05  3.0164e-04  0:00:30 1677
  2324  4.0477e-05  1.7540e-04  8.6154e-05  3.9143e-02  3.3832e-05  2.9451e-04  0:00:24 1676
  2325  4.0716e-05  1.7470e-04  8.7012e-05  3.9472e-02  3.4023e-05  2.8748e-04  0:00:19 1675
  2326  4.0899e-05  1.7405e-04  8.7801e-05  3.9756e-02  3.4165e-05  2.8053e-04  0:00:15 1674
  2327  4.1026e-05  1.7345e-04  8.8518e-05  3.9997e-02  3.4258e-05  2.7369e-04  0:00:12 1673
  2328  4.1095e-05  1.7289e-04  8.9159e-05  4.0211e-02  3.4300e-05  2.6693e-04  0:00:10 1672
  2329  4.1107e-05  1.7236e-04  8.9720e-05  4.0378e-02  3.4291e-05  2.6027e-04  0:00:08 1671

  iter  continuity  x-velocity  y-velocity  z-velocity      energy         nut     time/iter
  2330  4.1061e-05  1.7187e-04  9.0199e-05  4.0483e-02  3.4231e-05  2.5371e-04  0:00:06 1670
  2331  4.0960e-05  1.7140e-04  9.0592e-05  4.0535e-02  3.4122e-05  2.4725e-04  0:05:39 1669
  2332  4.0804e-05  1.7096e-04  9.0898e-05  4.0607e-02  3.3966e-05  2.4089e-04  0:04:31 1668
  2333  4.0595e-05  1.7054e-04  9.1115e-05  4.0745e-02  3.3765e-05  2.3462e-04  0:03:37 1667
  2334  4.0338e-05  1.7013e-04  9.1242e-05  4.0982e-02  3.3521e-05  2.2846e-04  0:02:53 1666
  2335  4.0033e-05  1.6973e-04  9.1279e-05  4.1199e-02  3.3237e-05  2.2240e-04  0:02:18 1665
  2336  3.9686e-05  1.6934e-04  9.1226e-05  4.1499e-02  3.2918e-05  2.1644e-04  0:01:51 1664
  2337  3.9300e-05  1.6895e-04  9.1084e-05  4.1762e-02  3.2566e-05  2.1059e-04  0:01:29 1663
  2338  3.8880e-05  1.6855e-04  9.0853e-05  4.1846e-02  3.2187e-05  2.0483e-04  0:01:11 1662
  2339  3.8428e-05  1.6815e-04  9.0536e-05  4.1548e-02  3.1783e-05  1.9918e-04  0:00:57 1661
  2340  3.7949e-05  1.6773e-04  9.0134e-05  4.0911e-02  3.1359e-05  1.9364e-04  0:00:45 1660

  iter  continuity  x-velocity  y-velocity  z-velocity      energy         nut     time/iter
  2341  3.7448e-05  1.6730e-04  8.9650e-05  4.0127e-02  3.0918e-05  1.8820e-04  0:00:36 1659
  2342  3.6929e-05  1.6684e-04  8.9087e-05  3.9366e-02  3.0466e-05  1.8286e-04  0:00:29 1658
  2343  3.6396e-05  1.6636e-04  8.8447e-05  3.8686e-02  3.0007e-05  1.7762e-04  0:00:23 1657
  2344  3.5854e-05  1.6584e-04  8.7735e-05  3.8078e-02  2.9544e-05  1.7249e-04  0:00:18 1656
  2345  3.5307e-05  1.6529e-04  8.6954e-05  3.7512e-02  2.9080e-05  1.6746e-04  0:00:15 1655
  2346  3.4758e-05  1.6471e-04  8.6109e-05  3.6992e-02  2.8620e-05  1.6253e-04  0:00:12 1654
  2347  3.4211e-05  1.6409e-04  8.5203e-05  3.6576e-02  2.8166e-05  1.5770e-04  0:00:09 1653
  2348  3.3669e-05  1.6343e-04  8.4242e-05  3.6221e-02  2.7722e-05  1.5298e-04  0:00:08 1652
  2349  3.3135e-05  1.6273e-04  8.3229e-05  3.5892e-02  2.7288e-05  1.4835e-04  0:00:06 1651
  2350  3.2612e-05  1.6199e-04  8.2170e-05  3.5565e-02  2.6869e-05  1.4383e-04  0:05:35 1650
  2351  3.2101e-05  1.6121e-04  8.1069e-05  3.5222e-02  2.6465e-05  1.3941e-04  0:04:28 1649

  iter  continuity  x-velocity  y-velocity  z-velocity      energy         nut     time/iter
  2352  3.1606e-05  1.6038e-04  7.9932e-05  3.4860e-02  2.6078e-05  1.3509e-04  0:03:34 1648
  2353  3.1127e-05  1.5951e-04  7.8762e-05  3.4479e-02  2.5710e-05  1.3087e-04  0:02:51 1647
  2354  3.0666e-05  1.5860e-04  7.7566e-05  3.4079e-02  2.5361e-05  1.2675e-04  0:02:17 1646
  2355  3.0224e-05  1.5766e-04  7.6347e-05  3.3665e-02  2.5031e-05  1.2273e-04  0:01:49 1645
  2356  2.9801e-05  1.5667e-04  7.5110e-05  3.3237e-02  2.4722e-05  1.1880e-04  0:01:27 1644
  2357  2.9398e-05  1.5565e-04  7.3860e-05  3.2794e-02  2.4432e-05  1.1497e-04  0:01:10 1643
  2358  2.9015e-05  1.5459e-04  7.2601e-05  3.2334e-02  2.4161e-05  1.1124e-04  0:00:56 1642
  2359  2.8652e-05  1.5350e-04  7.1337e-05  3.1855e-02  2.3910e-05  1.0760e-04  0:00:45 1641
  2360  2.8308e-05  1.5239e-04  7.0072e-05  3.1355e-02  2.3677e-05  1.0406e-04  0:00:36 1640
  2361  2.7983e-05  1.5124e-04  6.8810e-05  3.0832e-02  2.3462e-05  1.0061e-04  0:00:29 1639
  2362  2.7676e-05  1.5008e-04  6.7553e-05  3.0286e-02  2.3264e-05  9.7238e-05  0:00:23 1638

  iter  continuity  x-velocity  y-velocity  z-velocity      energy         nut     time/iter
  2363  2.7385e-05  1.4889e-04  6.6306e-05  2.9716e-02  2.3081e-05  9.3963e-05  0:00:18 1637
  2364  2.7111e-05  1.4768e-04  6.5069e-05  2.9114e-02  2.2913e-05  9.0777e-05  0:00:15 1636
  2365  2.6852e-05  1.4646e-04  6.3846e-05  2.8487e-02  2.2758e-05  8.7680e-05  0:00:12 1635
  2366  2.6607e-05  1.4523e-04  6.2639e-05  2.7838e-02  2.2617e-05  8.4668e-05  0:00:09 1634
  2367  2.6375e-05  1.4398e-04  6.1448e-05  2.7161e-02  2.2486e-05  8.1741e-05  0:00:07 1633
  2368  2.6154e-05  1.4273e-04  6.0276e-05  2.6468e-02  2.2366e-05  7.8898e-05  0:00:06 1632
  2369  2.5942e-05  1.4148e-04  5.9123e-05  2.5762e-02  2.2255e-05  7.6137e-05  0:05:31 1631
  2370  2.5739e-05  1.4022e-04  5.7990e-05  2.5048e-02  2.2151e-05  7.3457e-05  0:04:25 1630
  2371  2.5542e-05  1.3896e-04  5.6876e-05  2.4329e-02  2.2053e-05  7.0856e-05  0:03:32 1629
  2372  2.5351e-05  1.3771e-04  5.5782e-05  2.3610e-02  2.1959e-05  6.8334e-05  0:02:49 1628
  2373  2.5163e-05  1.3646e-04  5.4708e-05  2.2893e-02  2.1868e-05  6.5889e-05  0:02:15 1627

  iter  continuity  x-velocity  y-velocity  z-velocity      energy         nut     time/iter
  2374  2.4976e-05  1.3521e-04  5.3652e-05  2.2180e-02  2.1779e-05  6.3519e-05  0:01:48 1626
  2375  2.4789e-05  1.3397e-04  5.2614e-05  2.1472e-02  2.1689e-05  6.1222e-05  0:01:26 1625
  2376  2.4601e-05  1.3274e-04  5.1593e-05  2.0773e-02  2.1598e-05  5.8998e-05  0:01:09 1624
  2377  2.4408e-05  1.3153e-04  5.0587e-05  2.0085e-02  2.1503e-05  5.6846e-05  0:00:55 1623
  2378  2.4205e-05  1.3032e-04  4.9594e-05  1.9411e-02  2.1395e-05  5.4764e-05  0:00:44 1622
  2379  2.3998e-05  1.2912e-04  4.8614e-05  1.8754e-02  2.1286e-05  5.2750e-05  0:00:35 1621
  2380  2.3787e-05  1.2794e-04  4.7644e-05  1.8114e-02  2.1174e-05  5.0804e-05  0:00:28 1620
  2381  2.3568e-05  1.2677e-04  4.6684e-05  1.7493e-02  2.1053e-05  4.8924e-05  0:00:23 1619
  2382  2.3338e-05  1.2561e-04  4.5731e-05  1.6890e-02  2.0923e-05  4.7107e-05  0:00:18 1618
  2383  2.3096e-05  1.2447e-04  4.4783e-05  1.6295e-02  2.0782e-05  4.5353e-05  0:00:14 1617
  2384  2.2843e-05  1.2334e-04  4.3838e-05  1.5713e-02  2.0629e-05  4.3661e-05  0:00:12 1616

  iter  continuity  x-velocity  y-velocity  z-velocity      energy         nut     time/iter
  2385  2.2576e-05  1.2222e-04  4.2896e-05  1.5152e-02  2.0464e-05  4.2028e-05  0:00:09 1615
  2386  2.2296e-05  1.2111e-04  4.1953e-05  1.4614e-02  2.0287e-05  4.0453e-05  0:00:07 1614
  2387  2.2004e-05  1.2002e-04  4.1010e-05  1.4104e-02  2.0098e-05  3.8934e-05  0:00:06 1613
  2388  2.1699e-05  1.1894e-04  4.0064e-05  1.3618e-02  1.9897e-05  3.7470e-05  0:05:27 1612
  2389  2.1381e-05  1.1788e-04  3.9114e-05  1.3155e-02  1.9684e-05  3.6060e-05  0:04:22 1611
  2390  2.1052e-05  1.1682e-04  3.8161e-05  1.2705e-02  1.9461e-05  3.4703e-05  0:03:29 1610
  2391  2.0713e-05  1.1577e-04  3.7201e-05  1.2266e-02  1.9227e-05  3.3396e-05  0:02:47 1609
  2392  2.0363e-05  1.1473e-04  3.6236e-05  1.1847e-02  1.8984e-05  3.2138e-05  0:02:14 1608
  2393  2.0006e-05  1.1371e-04  3.5266e-05  1.1451e-02  1.8734e-05  3.0928e-05  0:01:47 1607
  2394  1.9643e-05  1.1269e-04  3.4289e-05  1.1084e-02  1.8478e-05  2.9765e-05  0:01:25 1606
  2395  1.9275e-05  1.1167e-04  3.3307e-05  1.0754e-02  1.8217e-05  2.8646e-05  0:01:08 1605

  iter  continuity  x-velocity  y-velocity  z-velocity      energy         nut     time/iter
  2396  1.8905e-05  1.1067e-04  3.2320e-05  1.0447e-02  1.7953e-05  2.7570e-05  0:00:55 1604
  2397  1.8536e-05  1.0968e-04  3.1329e-05  1.0161e-02  1.7689e-05  2.6537e-05  0:00:44 1603
  2398  1.8169e-05  1.0869e-04  3.0337e-05  9.8831e-03  1.7426e-05  2.5546e-05  0:00:35 1602
  2399  1.7807e-05  1.0770e-04  2.9344e-05  9.6218e-03  1.7165e-05  2.4595e-05  0:00:28 1601
  2400  1.7454e-05  1.0671e-04  2.8353e-05  9.3804e-03  1.6911e-05  2.3683e-05  0:00:22 1600
  2401  1.7111e-05  1.0573e-04  2.7366e-05  9.1577e-03  1.6665e-05  2.2808e-05  0:00:18 1599
  2402  1.6783e-05  1.0474e-04  2.6388e-05  8.9512e-03  1.6429e-05  2.1969e-05  0:00:14 1598
  2403  1.6472e-05  1.0376e-04  2.5421e-05  8.7592e-03  1.6204e-05  2.1166e-05  0:00:11 1597
  2404  1.6179e-05  1.0277e-04  2.4470e-05  8.5795e-03  1.5993e-05  2.0396e-05  0:00:09 1596
  2405  1.5909e-05  1.0179e-04  2.3542e-05  8.4071e-03  1.5797e-05  1.9658e-05  0:00:07 1595
  2406  1.5662e-05  1.0080e-04  2.2640e-05  8.2452e-03  1.5619e-05  1.8952e-05  0:00:06 1594

  iter  continuity  x-velocity  y-velocity  z-velocity      energy         nut     time/iter
  2407  1.5443e-05  9.9810e-05  2.1773e-05  8.0930e-03  1.5458e-05  1.8275e-05  0:05:23 1593
  2408  1.5251e-05  9.8818e-05  2.0947e-05  7.9493e-03  1.5318e-05  1.7628e-05  0:04:18 1592
  2409  1.5090e-05  9.7825e-05  2.0170e-05  7.8155e-03  1.5197e-05  1.7009e-05  0:03:27 1591
  2410  1.4959e-05  9.6829e-05  1.9451e-05  7.6861e-03  1.5098e-05  1.6417e-05  0:02:45 1590
  2411  1.4859e-05  9.5832e-05  1.8798e-05  7.5602e-03  1.5020e-05  1.5851e-05  0:02:12 1589
  2412  1.4792e-05  9.4834e-05  1.8221e-05  7.4390e-03  1.4963e-05  1.5310e-05  0:01:46 1588
  2413  1.4755e-05  9.3833e-05  1.7729e-05  7.3222e-03  1.4926e-05  1.4793e-05  0:01:24 1587
  2414  1.4748e-05  9.2832e-05  1.7330e-05  7.2091e-03  1.4910e-05  1.4299e-05  0:01:07 1586
  2415  1.4771e-05  9.1831e-05  1.7031e-05  7.0991e-03  1.4912e-05  1.3827e-05  0:00:54 1585
  2416  1.4820e-05  9.0830e-05  1.6837e-05  6.9933e-03  1.4933e-05  1.3377e-05  0:00:43 1584
  2417  1.4895e-05  8.9829e-05  1.6752e-05  6.8906e-03  1.4969e-05  1.2947e-05  0:00:34 1583

  iter  continuity  x-velocity  y-velocity  z-velocity      energy         nut     time/iter
  2418  1.4992e-05  8.8831e-05  1.6775e-05  6.7904e-03  1.5020e-05  1.2537e-05  0:00:28 1582
  2419  1.5110e-05  8.7835e-05  1.6903e-05  6.6904e-03  1.5084e-05  1.2146e-05  0:00:22 1581
  2420  1.5245e-05  8.6842e-05  1.7134e-05  6.5938e-03  1.5160e-05  1.1772e-05  0:00:18 1580
  2421  1.5396e-05  8.5855e-05  1.7459e-05  6.4987e-03  1.5244e-05  1.1417e-05  0:00:14 1579
  2422  1.5560e-05  8.4872e-05  1.7872e-05  6.4035e-03  1.5337e-05  1.1077e-05  0:00:11 1578
  2423  1.5733e-05  8.3896e-05  1.8361e-05  6.3092e-03  1.5435e-05  1.0753e-05  0:00:09 1577
  2424  1.5914e-05  8.2929e-05  1.8918e-05  6.2175e-03  1.5538e-05  1.0444e-05  0:00:07 1576
  2425  1.6101e-05  8.1972e-05  1.9532e-05  6.1279e-03  1.5643e-05  1.0149e-05  0:05:21 1575
  2426  1.6291e-05  8.1026e-05  2.0194e-05  6.0399e-03  1.5749e-05  9.8673e-06  0:04:16 1574
  2427  1.6481e-05  8.0091e-05  2.0896e-05  5.9531e-03  1.5855e-05  9.5992e-06  0:03:25 1573
  2428  1.6671e-05  7.9170e-05  2.1629e-05  5.8670e-03  1.5958e-05  9.3434e-06  0:02:44 1572

  iter  continuity  x-velocity  y-velocity  z-velocity      energy         nut     time/iter
  2429  1.6859e-05  7.8263e-05  2.2386e-05  5.7794e-03  1.6059e-05  9.0994e-06  0:02:11 1571
  2430  1.7043e-05  7.7371e-05  2.3160e-05  5.6905e-03  1.6155e-05  8.8667e-06  0:01:45 1570
  2431  1.7222e-05  7.6496e-05  2.3946e-05  5.5973e-03  1.6247e-05  8.6448e-06  0:01:24 1569
  2432  1.7396e-05  7.5637e-05  2.4739e-05  5.5034e-03  1.6334e-05  8.4330e-06  0:01:07 1568
  2433  1.7563e-05  7.4797e-05  2.5533e-05  5.4089e-03  1.6415e-05  8.2310e-06  0:00:54 1567
  2434  1.7723e-05  7.3975e-05  2.6326e-05  5.3150e-03  1.6490e-05  8.0382e-06  0:00:43 1566
  2435  1.7876e-05  7.3173e-05  2.7113e-05  5.2245e-03  1.6558e-05  7.8541e-06  0:00:34 1565
  2436  1.8021e-05  7.2392e-05  2.7892e-05  5.1338e-03  1.6619e-05  7.6785e-06  0:00:27 1564
  2437  1.8151e-05  7.1489e-05  2.8682e-05  5.0460e-03  1.6667e-05  7.5110e-06  0:00:22 1563
  2438  1.8284e-05  7.0703e-05  2.9443e-05  4.9640e-03  1.6719e-05  7.3511e-06  0:00:17 1562
  2439  1.8409e-05  6.9974e-05  3.0176e-05  4.8887e-03  1.6765e-05  7.1982e-06  0:00:14 1561

  iter  continuity  x-velocity  y-velocity  z-velocity      energy         nut     time/iter
  2440  1.8524e-05  6.9277e-05  3.0895e-05  4.8193e-03  1.6803e-05  7.0519e-06  0:00:11 1560
  2441  1.8631e-05  6.8601e-05  3.1598e-05  4.7581e-03  1.6833e-05  6.9120e-06  0:00:09 1559
  2442  1.8730e-05  6.7942e-05  3.2285e-05  4.7071e-03  1.6858e-05  6.7780e-06  0:00:07 1558
  2443  1.8821e-05  6.7301e-05  3.2952e-05  4.6665e-03  1.6877e-05  6.6497e-06  0:00:06 1557
  2444  1.8906e-05  6.6679e-05  3.3598e-05  4.6374e-03  1.6891e-05  6.5268e-06  0:00:05 1556
  2445  1.8986e-05  6.6077e-05  3.4223e-05  4.6174e-03  1.6902e-05  6.4092e-06  0:05:15 1555
  2446  1.9059e-05  6.5495e-05  3.4827e-05  4.6077e-03  1.6908e-05  6.2963e-06  0:04:12 1554
  2447  1.9128e-05  6.4933e-05  3.5410e-05  4.6095e-03  1.6911e-05  6.1877e-06  0:03:21 1553
  2448  1.9193e-05  6.4390e-05  3.5972e-05  4.6217e-03  1.6912e-05  6.0835e-06  0:02:41 1552
  2449  1.9253e-05  6.3864e-05  3.6514e-05  4.6446e-03  1.6910e-05  5.9834e-06  0:02:09 1551
  2450  1.9311e-05  6.3356e-05  3.7035e-05  4.6775e-03  1.6906e-05  5.8870e-06  0:01:43 1550

  iter  continuity  x-velocity  y-velocity  z-velocity      energy         nut     time/iter
  2451  1.9365e-05  6.2865e-05  3.7537e-05  4.7197e-03  1.6901e-05  5.7941e-06  0:01:22 1549
  2452  1.9417e-05  6.2389e-05  3.8019e-05  4.7719e-03  1.6895e-05  5.7049e-06  0:01:06 1548
  2453  1.9467e-05  6.1928e-05  3.8482e-05  4.8326e-03  1.6888e-05  5.6191e-06  0:00:53 1547
  2454  1.9515e-05  6.1481e-05  3.8927e-05  4.9008e-03  1.6881e-05  5.5365e-06  0:00:42 1546
  2455  1.9561e-05  6.1048e-05  3.9354e-05  4.9761e-03  1.6874e-05  5.4567e-06  0:00:34 1545
  2456  1.9607e-05  6.0627e-05  3.9763e-05  5.0567e-03  1.6867e-05  5.3792e-06  0:00:27 1544
  2457  1.9652e-05  6.0217e-05  4.0156e-05  5.1431e-03  1.6861e-05  5.3036e-06  0:00:21 1543
  2458  1.9697e-05  5.9819e-05  4.0534e-05  5.2339e-03  1.6855e-05  5.2300e-06  0:00:17 1542
  2459  1.9741e-05  5.9432e-05  4.0895e-05  5.3281e-03  1.6850e-05  5.1586e-06  0:00:14 1541
  2460  1.9784e-05  5.9055e-05  4.1242e-05  5.4250e-03  1.6846e-05  5.0900e-06  0:00:11 1540
  2461  1.9827e-05  5.8686e-05  4.1576e-05  5.5236e-03  1.6842e-05  5.0232e-06  0:00:09 1539

  iter  continuity  x-velocity  y-velocity  z-velocity      energy         nut     time/iter
  2462  1.9871e-05  5.8327e-05  4.1896e-05  5.6236e-03  1.6840e-05  4.9584e-06  0:00:07 1538
  2463  1.9914e-05  5.7975e-05  4.2203e-05  5.7242e-03  1.6840e-05  4.8953e-06  0:00:06 1537
  2464  1.9958e-05  5.7630e-05  4.2499e-05  5.8233e-03  1.6841e-05  4.8341e-06  0:05:12 1536
  2465  2.0001e-05  5.7292e-05  4.2782e-05  5.9209e-03  1.6842e-05  4.7746e-06  0:04:09 1535
  2466  2.0044e-05  5.6959e-05  4.3055e-05  6.0169e-03  1.6845e-05  4.7167e-06  0:03:19 1534
  2467  2.0086e-05  5.6633e-05  4.3317e-05  6.1112e-03  1.6847e-05  4.6605e-06  0:02:39 1533
  2468  2.0126e-05  5.6312e-05  4.3570e-05  6.2048e-03  1.6850e-05  4.6058e-06  0:02:07 1532
  2469  2.0166e-05  5.5996e-05  4.3812e-05  6.2957e-03  1.6853e-05  4.5521e-06  0:01:42 1531
  2470  2.0205e-05  5.5685e-05  4.4045e-05  6.3823e-03  1.6856e-05  4.4994e-06  0:01:21 1530
  2471  2.0241e-05  5.5378e-05  4.4269e-05  6.4668e-03  1.6858e-05  4.4476e-06  0:01:05 1529
  2472  2.0276e-05  5.5072e-05  4.4483e-05  6.5490e-03  1.6860e-05  4.3968e-06  0:00:52 1528

  iter  continuity  x-velocity  y-velocity  z-velocity      energy         nut     time/iter
  2473  2.0310e-05  5.4770e-05  4.4688e-05  6.6287e-03  1.6861e-05  4.3469e-06  0:00:42 1527
  2474  2.0341e-05  5.4475e-05  4.4885e-05  6.7061e-03  1.6861e-05  4.2977e-06  0:00:33 1526
  2475  2.0369e-05  5.4185e-05  4.5072e-05  6.7811e-03  1.6860e-05  4.2496e-06  0:00:27 1525
  2476  2.0394e-05  5.3900e-05  4.5251e-05  6.8539e-03  1.6857e-05  4.2025e-06  0:00:21 1524
  2477  2.0417e-05  5.3620e-05  4.5420e-05  6.9225e-03  1.6851e-05  4.1563e-06  0:00:17 1523
  2478  2.0436e-05  5.3344e-05  4.5581e-05  6.9879e-03  1.6844e-05  4.1108e-06  0:00:14 1522
  2479  2.0451e-05  5.3074e-05  4.5732e-05  7.0497e-03  1.6834e-05  4.0657e-06  0:00:11 1521
  2480  2.0461e-05  5.2808e-05  4.5874e-05  7.1077e-03  1.6821e-05  4.0214e-06  0:00:09 1520
  2481  2.0467e-05  5.2548e-05  4.6006e-05  7.1615e-03  1.6804e-05  3.9779e-06  0:00:07 1519
  2482  2.0469e-05  5.2294e-05  4.6129e-05  7.2107e-03  1.6784e-05  3.9351e-06  0:05:09 1518
  2483  2.0466e-05  5.2044e-05  4.6242e-05  7.2537e-03  1.6761e-05  3.8928e-06  0:04:07 1517

  iter  continuity  x-velocity  y-velocity  z-velocity      energy         nut     time/iter
  2484  2.0457e-05  5.1800e-05  4.6344e-05  7.2907e-03  1.6733e-05  3.8512e-06  0:03:18 1516
  2485  2.0443e-05  5.1561e-05  4.6436e-05  7.3234e-03  1.6701e-05  3.8102e-06  0:02:38 1515
  2486  2.0422e-05  5.1326e-05  4.6518e-05  7.3510e-03  1.6663e-05  3.7699e-06  0:02:06 1514
  2487  2.0394e-05  5.1097e-05  4.6588e-05  7.3732e-03  1.6621e-05  3.7300e-06  0:01:41 1513
  2488  2.0360e-05  5.0872e-05  4.6647e-05  7.3900e-03  1.6573e-05  3.6907e-06  0:01:21 1512
  2489  2.0319e-05  5.0652e-05  4.6694e-05  7.3998e-03  1.6519e-05  3.6519e-06  0:01:05 1511
  2490  2.0270e-05  5.0437e-05  4.6730e-05  7.4037e-03  1.6460e-05  3.6137e-06  0:00:52 1510
  2491  2.0215e-05  5.0226e-05  4.6753e-05  7.4030e-03  1.6395e-05  3.5758e-06  0:00:41 1509
  2492  2.0152e-05  5.0019e-05  4.6764e-05  7.3974e-03  1.6323e-05  3.5383e-06  0:00:33 1508
  2493  2.0082e-05  4.9817e-05  4.6762e-05  7.3865e-03  1.6246e-05  3.5007e-06  0:00:26 1507
  2494  2.0005e-05  4.9617e-05  4.6747e-05  7.3675e-03  1.6163e-05  3.4635e-06  0:00:21 1506

  iter  continuity  x-velocity  y-velocity  z-velocity      energy         nut     time/iter
  2495  1.9920e-05  4.9421e-05  4.6719e-05  7.3426e-03  1.6074e-05  3.4265e-06  0:00:17 1505
  2496  1.9829e-05  4.9228e-05  4.6677e-05  7.3121e-03  1.5980e-05  3.3898e-06  0:00:13 1504
  2497  1.9730e-05  4.9037e-05  4.6622e-05  7.2757e-03  1.5879e-05  3.3534e-06  0:00:11 1503
  2498  1.9624e-05  4.8849e-05  4.6553e-05  7.2361e-03  1.5774e-05  3.3169e-06  0:00:09 1502
  2499  1.9512e-05  4.8662e-05  4.6470e-05  7.1937e-03  1.5662e-05  3.2809e-06  0:00:07 1501
  2500  1.9394e-05  4.8476e-05  4.6374e-05  7.1485e-03  1.5546e-05  3.2449e-06  0:00:06 1500
  2501  1.9269e-05  4.8292e-05  4.6263e-05  7.1007e-03  1.5425e-05  3.2087e-06  0:05:04 1499
  2502  1.9139e-05  4.8107e-05  4.6139e-05  7.0503e-03  1.5300e-05  3.1725e-06  0:04:03 1498
  2503  1.9004e-05  4.7923e-05  4.6001e-05  6.9975e-03  1.5170e-05  3.1366e-06  0:03:14 1497
  2504  1.8863e-05  4.7738e-05  4.5849e-05  6.9424e-03  1.5037e-05  3.1010e-06  0:02:35 1496
  2505  1.8718e-05  4.7552e-05  4.5684e-05  6.8844e-03  1.4901e-05  3.0656e-06  0:02:04 1495

  iter  continuity  x-velocity  y-velocity  z-velocity      energy         nut     time/iter
  2506  1.8569e-05  4.7364e-05  4.5506e-05  6.8239e-03  1.4761e-05  3.0304e-06  0:01:39 1494
  2507  1.8416e-05  4.7175e-05  4.5315e-05  6.7607e-03  1.4619e-05  2.9952e-06  0:01:19 1493
  2508  1.8260e-05  4.6983e-05  4.5111e-05  6.6954e-03  1.4475e-05  2.9603e-06  0:01:03 1492
  2509  1.8100e-05  4.6788e-05  4.4894e-05  6.6282e-03  1.4328e-05  2.9258e-06  0:00:51 1491
  2510  1.7939e-05  4.6591e-05  4.4666e-05  6.5592e-03  1.4181e-05  2.8917e-06  0:00:41 1490
  2511  1.7775e-05  4.6390e-05  4.4426e-05  6.4884e-03  1.4032e-05  2.8577e-06  0:00:32 1489
  2512  1.7610e-05  4.6185e-05  4.4175e-05  6.4145e-03  1.3883e-05  2.8240e-06  0:00:26 1488
  2513  1.7443e-05  4.5975e-05  4.3914e-05  6.3402e-03  1.3733e-05  2.7905e-06  0:00:21 1487
  2514  1.7275e-05  4.5762e-05  4.3642e-05  6.2648e-03  1.3583e-05  2.7573e-06  0:00:17 1486
  2515  1.7107e-05  4.5544e-05  4.3361e-05  6.1872e-03  1.3434e-05  2.7241e-06  0:00:13 1485
  2516  1.6938e-05  4.5321e-05  4.3071e-05  6.1094e-03  1.3285e-05  2.6909e-06  0:05:07 1484

  iter  continuity  x-velocity  y-velocity  z-velocity      energy         nut     time/iter
  2517  1.6769e-05  4.5093e-05  4.2772e-05  6.0320e-03  1.3136e-05  2.6580e-06  0:04:06 1483
  2518  1.6601e-05  4.4859e-05  4.2466e-05  5.9554e-03  1.2989e-05  2.6256e-06  0:03:16 1482
  2519  1.6434e-05  4.4621e-05  4.2153e-05  5.8797e-03  1.2843e-05  2.5935e-06  0:02:37 1481
  2520  1.6267e-05  4.4377e-05  4.1833e-05  5.8048e-03  1.2699e-05  2.5616e-06  0:02:06 1480
  2521  1.6101e-05  4.4129e-05  4.1507e-05  5.7304e-03  1.2556e-05  2.5300e-06  0:01:40 1479
  2522  1.5937e-05  4.3874e-05  4.1175e-05  5.6569e-03  1.2415e-05  2.4983e-06  0:01:20 1478
  2523  1.5774e-05  4.3615e-05  4.0839e-05  5.5850e-03  1.2276e-05  2.4669e-06  0:01:04 1477
  2524  1.5614e-05  4.3351e-05  4.0499e-05  5.5144e-03  1.2139e-05  2.4351e-06  0:00:51 1476
  2525  1.5455e-05  4.3081e-05  4.0155e-05  5.4455e-03  1.2005e-05  2.4036e-06  0:00:41 1475
  2526  1.5298e-05  4.2807e-05  3.9808e-05  5.3784e-03  1.1872e-05  2.3724e-06  0:00:33 1474
  2527  1.5143e-05  4.2528e-05  3.9458e-05  5.3126e-03  1.1743e-05  2.3410e-06  0:00:26 1473

  iter  continuity  x-velocity  y-velocity  z-velocity      energy         nut     time/iter
  2528  1.4990e-05  4.2245e-05  3.9107e-05  5.2479e-03  1.1616e-05  2.3098e-06  0:00:21 1472
  2529  1.4840e-05  4.1958e-05  3.8755e-05  5.1848e-03  1.1491e-05  2.2793e-06  0:00:17 1471
  2530  1.4692e-05  4.1667e-05  3.8401e-05  5.1233e-03  1.1369e-05  2.2489e-06  0:00:13 1470
  2531  1.4547e-05  4.1372e-05  3.8047e-05  5.0633e-03  1.1249e-05  2.2187e-06  0:00:11 1469
  2532  1.4403e-05  4.1074e-05  3.7694e-05  5.0046e-03  1.1131e-05  2.1887e-06  0:00:09 1468
  2533  1.4263e-05  4.0774e-05  3.7341e-05  4.9472e-03  1.1017e-05  2.1588e-06  0:00:07 1467
  2534  1.4124e-05  4.0471e-05  3.6989e-05  4.8904e-03  1.0904e-05  2.1292e-06  0:00:05 1466
  2535  1.3988e-05  4.0166e-05  3.6638e-05  4.8350e-03  1.0794e-05  2.0997e-06  0:04:57 1465
  2536  1.3854e-05  3.9859e-05  3.6289e-05  4.7809e-03  1.0686e-05  2.0703e-06  0:03:58 1464
  2537  1.3723e-05  3.9551e-05  3.5942e-05  4.7282e-03  1.0580e-05  2.0411e-06  0:03:10 1463
  2538  1.3593e-05  3.9241e-05  3.5597e-05  4.6767e-03  1.0477e-05  2.0118e-06  0:02:32 1462

  iter  continuity  x-velocity  y-velocity  z-velocity      energy         nut     time/iter
  2539  1.3466e-05  3.8931e-05  3.5255e-05  4.6263e-03  1.0375e-05  1.9829e-06  0:02:01 1461
  2540  1.3340e-05  3.8621e-05  3.4915e-05  4.5768e-03  1.0275e-05  1.9544e-06  0:01:37 1460
  2541  1.3216e-05  3.8311e-05  3.4578e-05  4.5282e-03  1.0177e-05  1.9259e-06  0:01:18 1459
  2542  1.3093e-05  3.8002e-05  3.4244e-05  4.4803e-03  1.0080e-05  1.8975e-06  0:01:02 1458
  2543  1.2972e-05  3.7693e-05  3.3914e-05  4.4329e-03  9.9841e-06  1.8691e-06  0:00:50 1457
  2544  1.2853e-05  3.7386e-05  3.3586e-05  4.3859e-03  9.8897e-06  1.8407e-06  0:00:40 1456
  2545  1.2734e-05  3.7080e-05  3.3262e-05  4.3393e-03  9.7964e-06  1.8126e-06  0:00:32 1455
  2546  1.2617e-05  3.6775e-05  3.2942e-05  4.2930e-03  9.7040e-06  1.7848e-06  0:00:25 1454
  2547  1.2500e-05  3.6473e-05  3.2624e-05  4.2466e-03  9.6124e-06  1.7574e-06  0:00:20 1453
  2548  1.2384e-05  3.6173e-05  3.2310e-05  4.2003e-03  9.5213e-06  1.7303e-06  0:00:16 1452
  2549  1.2269e-05  3.5875e-05  3.1999e-05  4.1537e-03  9.4307e-06  1.7031e-06  0:00:13 1451

  iter  continuity  x-velocity  y-velocity  z-velocity      energy         nut     time/iter
  2550  1.2154e-05  3.5580e-05  3.1691e-05  4.1064e-03  9.3404e-06  1.6761e-06  0:00:10 1450
  2551  1.2039e-05  3.5288e-05  3.1386e-05  4.0574e-03  9.2503e-06  1.6493e-06  0:00:08 1449
  2552  1.1925e-05  3.4999e-05  3.1084e-05  4.0077e-03  9.1603e-06  1.6229e-06  0:00:07 1448
  2553  1.1810e-05  3.4713e-05  3.0785e-05  3.9575e-03  9.0702e-06  1.5968e-06  0:04:55 1447
  2554  1.1696e-05  3.4430e-05  3.0488e-05  3.9075e-03  8.9800e-06  1.5709e-06  0:03:56 1446
  2555  1.1581e-05  3.4150e-05  3.0194e-05  3.8574e-03  8.8895e-06  1.5451e-06  0:03:08 1445
  2556  1.1466e-05  3.3874e-05  2.9903e-05  3.8068e-03  8.7987e-06  1.5193e-06  0:02:31 1444
  2557  1.1351e-05  3.3601e-05  2.9613e-05  3.7557e-03  8.7076e-06  1.4939e-06  0:02:00 1443
  2558  1.1236e-05  3.3332e-05  2.9326e-05  3.7040e-03  8.6159e-06  1.4686e-06  0:01:36 1442
  2559  1.1120e-05  3.3066e-05  2.9040e-05  3.6520e-03  8.5238e-06  1.4437e-06  0:01:17 1441
  2560  1.1004e-05  3.2803e-05  2.8756e-05  3.5993e-03  8.4312e-06  1.4192e-06  0:01:02 1440

  iter  continuity  x-velocity  y-velocity  z-velocity      energy         nut     time/iter
  2561  1.0887e-05  3.2544e-05  2.8474e-05  3.5457e-03  8.3380e-06  1.3950e-06  0:00:49 1439
  2562  1.0770e-05  3.2288e-05  2.8193e-05  3.4917e-03  8.2443e-06  1.3710e-06  0:00:39 1438
  2563  1.0652e-05  3.2035e-05  2.7913e-05  3.4373e-03  8.1501e-06  1.3475e-06  0:00:31 1437
  2564  1.0534e-05  3.1785e-05  2.7635e-05  3.3827e-03  8.0553e-06  1.3242e-06  0:00:25 1436
  2565  1.0415e-05  3.1539e-05  2.7357e-05  3.3279e-03  7.9601e-06  1.3010e-06  0:00:20 1435
  2566  1.0296e-05  3.1295e-05  2.7080e-05  3.2732e-03  7.8643e-06  1.2781e-06  0:00:16 1434
  2567  1.0177e-05  3.1054e-05  2.6804e-05  3.2184e-03  7.7682e-06  1.2554e-06  0:00:13 1433
  2568  1.0057e-05  3.0815e-05  2.6529e-05  3.1636e-03  7.6718e-06  1.2329e-06  0:00:10 1432
  2569  9.9373e-06  3.0579e-05  2.6254e-05  3.1087e-03  7.5752e-06  1.2108e-06  0:00:08 1431
  2570  9.8173e-06  3.0346e-05  2.5980e-05  3.0539e-03  7.4784e-06  1.1893e-06  0:00:07 1430
  2571  9.6971e-06  3.0115e-05  2.5706e-05  2.9992e-03  7.3815e-06  1.1682e-06  0:00:05 1429

  iter  continuity  x-velocity  y-velocity  z-velocity      energy         nut     time/iter
  2572  9.5770e-06  2.9885e-05  2.5432e-05  2.9446e-03  7.2846e-06  1.1475e-06  0:04:50 1428
  2573  9.4569e-06  2.9658e-05  2.5159e-05  2.8901e-03  7.1877e-06  1.1271e-06  0:03:52 1427
  2574  9.3370e-06  2.9432e-05  2.4886e-05  2.8359e-03  7.0910e-06  1.1069e-06  0:03:05 1426
  2575  9.2173e-06  2.9208e-05  2.4613e-05  2.7820e-03  6.9946e-06  1.0870e-06  0:02:28 1425
  2576  9.0980e-06  2.8985e-05  2.4341e-05  2.7285e-03  6.8984e-06  1.0674e-06  0:01:58 1424
  2577  8.9791e-06  2.8764e-05  2.4069e-05  2.6754e-03  6.8027e-06  1.0478e-06  0:01:35 1423
  2578  8.8607e-06  2.8544e-05  2.3797e-05  2.6229e-03  6.7075e-06  1.0285e-06  0:01:16 1422
  2579  8.7429e-06  2.8324e-05  2.3526e-05  2.5709e-03  6.6129e-06  1.0098e-06  0:01:00 1421
  2580  8.6259e-06  2.8106e-05  2.3255e-05  2.5194e-03  6.5191e-06  9.9136e-07  0:00:48 1420
  2581  8.5097e-06  2.7889e-05  2.2985e-05  2.4688e-03  6.4261e-06  9.7351e-07  0:00:39 1419
  2582  8.3945e-06  2.7672e-05  2.2715e-05  2.4188e-03  6.3339e-06  9.5583e-07  0:00:31 1418

  iter  continuity  x-velocity  y-velocity  z-velocity      energy         nut     time/iter
  2583  8.2802e-06  2.7456e-05  2.2446e-05  2.3695e-03  6.2428e-06  9.3838e-07  0:00:25 1417
  2584  8.1671e-06  2.7241e-05  2.2177e-05  2.3209e-03  6.1528e-06  9.2124e-07  0:00:20 1416
  2585  8.0551e-06  2.7026e-05  2.1910e-05  2.2731e-03  6.0638e-06  9.0429e-07  0:00:16 1415
  2586  7.9443e-06  2.6812e-05  2.1643e-05  2.2260e-03  5.9761e-06  8.8757e-07  0:00:13 1414
  2587  7.8348e-06  2.6598e-05  2.1377e-05  2.1798e-03  5.8896e-06  8.7125e-07  0:00:10 1413
  2588  7.7267e-06  2.6385e-05  2.1113e-05  2.1343e-03  5.8044e-06  8.5534e-07  0:00:08 1412
  2589  7.6200e-06  2.6172e-05  2.0849e-05  2.0897e-03  5.7205e-06  8.3985e-07  0:00:06 1411
  2590  7.5147e-06  2.5959e-05  2.0587e-05  2.0460e-03  5.6381e-06  8.2448e-07  0:00:05 1410
  2591  7.4108e-06  2.5746e-05  2.0326e-05  2.0032e-03  5.5570e-06  8.0935e-07  0:04:46 1409
  2592  7.3085e-06  2.5534e-05  2.0066e-05  1.9612e-03  5.4773e-06  7.9464e-07  0:03:49 1408
  2593  7.2077e-06  2.5322e-05  1.9809e-05  1.9201e-03  5.3990e-06  7.8028e-07  0:03:03 1407

  iter  continuity  x-velocity  y-velocity  z-velocity      energy         nut     time/iter
  2594  7.1084e-06  2.5111e-05  1.9552e-05  1.8798e-03  5.3222e-06  7.6621e-07  0:02:26 1406
  2595  7.0106e-06  2.4900e-05  1.9298e-05  1.8403e-03  5.2468e-06  7.5230e-07  0:01:57 1405
  2596  6.9144e-06  2.4689e-05  1.9046e-05  1.8017e-03  5.1729e-06  7.3866e-07  0:01:33 1404
  2597  6.8197e-06  2.4479e-05  1.8795e-05  1.7639e-03  5.1003e-06  7.2540e-07  0:01:15 1403
  2598  6.7265e-06  2.4269e-05  1.8547e-05  1.7269e-03  5.0292e-06  7.1276e-07  0:01:00 1402
  2599  6.6349e-06  2.4060e-05  1.8301e-05  1.6909e-03  4.9594e-06  7.0041e-07  0:00:48 1401
  2600  6.5447e-06  2.3852e-05  1.8057e-05  1.6556e-03  4.8911e-06  6.8821e-07  0:00:38 1400
  2601  6.4560e-06  2.3644e-05  1.7815e-05  1.6210e-03  4.8240e-06  6.7646e-07  0:00:30 1399
  2602  6.3687e-06  2.3437e-05  1.7575e-05  1.5869e-03  4.7582e-06  6.6482e-07  0:00:24 1398
  2603  6.2827e-06  2.3232e-05  1.7338e-05  1.5534e-03  4.6937e-06  6.5336e-07  0:00:19 1397
  2604  6.1981e-06  2.3027e-05  1.7104e-05  1.5202e-03  4.6303e-06  6.4226e-07  0:00:16 1396

  iter  continuity  x-velocity  y-velocity  z-velocity      energy         nut     time/iter
  2605  6.1148e-06  2.2823e-05  1.6871e-05  1.4877e-03  4.5681e-06  6.3145e-07  0:00:12 1395
  2606  6.0327e-06  2.2620e-05  1.6642e-05  1.4556e-03  4.5071e-06  6.2122e-07  0:00:10 1394
  2607  5.9519e-06  2.2419e-05  1.6414e-05  1.4239e-03  4.4470e-06  6.1139e-07  0:00:08 1393
  2608  5.8721e-06  2.2218e-05  1.6189e-05  1.3925e-03  4.3880e-06  6.0182e-07  0:00:06 1392
  2609  5.7935e-06  2.2020e-05  1.5967e-05  1.3614e-03  4.3299e-06  5.9230e-07  0:04:43 1391
  2610  5.7158e-06  2.1822e-05  1.5747e-05  1.3306e-03  4.2728e-06  5.8289e-07  0:03:46 1390
  2611  5.6392e-06  2.1627e-05  1.5530e-05  1.3001e-03  4.2164e-06  5.7360e-07  0:03:01 1389
  2612  5.5634e-06  2.1432e-05  1.5314e-05  1.2700e-03  4.1608e-06  5.6502e-07  0:02:25 1388
  2613  5.4885e-06  2.1240e-05  1.5102e-05  1.2402e-03  4.1060e-06  5.5664e-07  0:01:56 1387
  2614  5.4144e-06  2.1049e-05  1.4891e-05  1.2108e-03  4.0518e-06  5.4861e-07  0:01:32 1386
  2615  5.3410e-06  2.0860e-05  1.4683e-05  1.1815e-03  3.9982e-06  5.4083e-07  0:01:14 1385

  iter  continuity  x-velocity  y-velocity  z-velocity      energy         nut     time/iter
  2616  5.2683e-06  2.0673e-05  1.4478e-05  1.1526e-03  3.9452e-06  5.3343e-07  0:00:59 1384
  2617  5.1962e-06  2.0487e-05  1.4274e-05  1.1239e-03  3.8926e-06  5.2614e-07  0:00:47 1383
  2618  5.1247e-06  2.0304e-05  1.4073e-05  1.0954e-03  3.8406e-06  5.1898e-07  0:00:38 1382
  2619  5.0538e-06  2.0123e-05  1.3873e-05  1.0672e-03  3.7890e-06  5.1221e-07  0:00:30 1381
  2620  4.9833e-06  1.9943e-05  1.3676e-05  1.0393e-03  3.7377e-06  5.0573e-07  0:00:24 1380
  2621  4.9133e-06  1.9766e-05  1.3481e-05  1.0116e-03  3.6868e-06  4.9951e-07  0:00:19 1379
  2622  4.8436e-06  1.9590e-05  1.3287e-05  9.8427e-04  3.6361e-06  4.9384e-07  0:00:15 1378
  2623  4.7744e-06  1.9416e-05  1.3096e-05  9.5726e-04  3.5857e-06  4.8828e-07  0:00:12 1377
  2624  4.7054e-06  1.9245e-05  1.2906e-05  9.3060e-04  3.5355e-06  4.8323e-07  0:00:10 1376
  2625  4.6367e-06  1.9075e-05  1.2718e-05  9.0429e-04  3.4855e-06  4.7827e-07  0:00:08 1375
  2626  4.5682e-06  1.8907e-05  1.2532e-05  8.7836e-04  3.4356e-06  4.7357e-07  0:00:06 1374

  iter  continuity  x-velocity  y-velocity  z-velocity      energy         nut     time/iter
  2627  4.5000e-06  1.8742e-05  1.2348e-05  8.5287e-04  3.3859e-06  4.6900e-07  0:00:05 1373
  2628  4.4319e-06  1.8578e-05  1.2165e-05  8.2784e-04  3.3362e-06  4.6484e-07  0:04:38 1372
  2629  4.3641e-06  1.8416e-05  1.1983e-05  8.0330e-04  3.2867e-06  4.6103e-07  0:03:43 1371
  2630  4.2964e-06  1.8255e-05  1.1803e-05  7.7932e-04  3.2372e-06  4.5728e-07  0:02:58 1370
  2631  4.2289e-06  1.8097e-05  1.1624e-05  7.5581e-04  3.1878e-06  4.5395e-07  0:02:22 1369
  2632  4.1615e-06  1.7940e-05  1.1447e-05  7.3302e-04  3.1384e-06  4.5078e-07  0:01:54 1368
  2633  4.0943e-06  1.7785e-05  1.1270e-05  7.1101e-04  3.0892e-06  4.4802e-07  0:01:31 1367
  2634  4.0272e-06  1.7631e-05  1.1096e-05  6.8978e-04  3.0400e-06  4.4557e-07  0:01:13 1366
  2635  3.9603e-06  1.7479e-05  1.0922e-05  6.6934e-04  2.9908e-06  4.4363e-07  0:00:58 1365
  2636  3.8935e-06  1.7328e-05  1.0749e-05  6.4981e-04  2.9418e-06  4.4154e-07  0:00:46 1364
  2637  3.8270e-06  1.7179e-05  1.0578e-05  6.3125e-04  2.8928e-06  4.3872e-07  0:00:37 1363

  iter  continuity  x-velocity  y-velocity  z-velocity      energy         nut     time/iter
  2638  3.7605e-06  1.7031e-05  1.0407e-05  6.1371e-04  2.8440e-06  4.3611e-07  0:00:30 1362
  2639  3.6943e-06  1.6885e-05  1.0238e-05  5.9725e-04  2.7952e-06  4.3397e-07  0:00:24 1361
  2640  3.6283e-06  1.6740e-05  1.0070e-05  5.8187e-04  2.7466e-06  4.3247e-07  0:00:19 1360
  2641  3.5626e-06  1.6596e-05  9.9022e-06  5.6759e-04  2.6982e-06  4.3176e-07  0:00:15 1359
  2642  3.4971e-06  1.6452e-05  9.7358e-06  5.5448e-04  2.6499e-06  4.3152e-07  0:00:12 1358
  2643  3.4318e-06  1.6310e-05  9.5703e-06  5.4255e-04  2.6019e-06  4.3132e-07  0:00:10 1357
  2644  3.3669e-06  1.6170e-05  9.4058e-06  5.3180e-04  2.5541e-06  4.3128e-07  0:00:08 1356
  2645  3.3024e-06  1.6029e-05  9.2422e-06  5.2223e-04  2.5066e-06  4.3130e-07  0:00:06 1355
  2646  3.2382e-06  1.5890e-05  9.0796e-06  5.1378e-04  2.4593e-06  4.3156e-07  0:00:05 1354
  2647  3.1743e-06  1.5752e-05  8.9178e-06  5.0632e-04  2.4124e-06  4.3208e-07  0:04:35 1353
  2648  3.1110e-06  1.5614e-05  8.7570e-06  4.9987e-04  2.3659e-06  4.3265e-07  0:03:39 1352

  iter  continuity  x-velocity  y-velocity  z-velocity      energy         nut     time/iter
  2649  3.0480e-06  1.5478e-05  8.5972e-06  4.9449e-04  2.3197e-06  4.3327e-07  0:02:55 1351
  2650  2.9856e-06  1.5342e-05  8.4382e-06  4.9021e-04  2.2739e-06  4.3405e-07  0:02:20 1350
  2651  2.9237e-06  1.5206e-05  8.2803e-06  4.8702e-04  2.2285e-06  4.3535e-07  0:01:52 1349
  2652  2.8623e-06  1.5071e-05  8.1233e-06  4.8484e-04  2.1837e-06  4.3693e-07  0:01:30 1348
  2653  2.8015e-06  1.4937e-05  7.9672e-06  4.8357e-04  2.1393e-06  4.3825e-07  0:01:12 1347
  2654  2.7413e-06  1.4804e-05  7.8122e-06  4.8311e-04  2.0954e-06  4.3929e-07  0:00:57 1346
  2655  2.6818e-06  1.4671e-05  7.6582e-06  4.8335e-04  2.0521e-06  4.4019e-07  0:00:46 1345
  2656  2.6229e-06  1.4539e-05  7.5052e-06  4.8425e-04  2.0093e-06  4.4091e-07  0:00:37 1344
  2657  2.5646e-06  1.4407e-05  7.3533e-06  4.8567e-04  1.9672e-06  4.4146e-07  0:00:29 1343
  2658  2.5071e-06  1.4276e-05  7.2024e-06  4.8754e-04  1.9256e-06  4.4186e-07  0:00:23 1342
  2659  2.4503e-06  1.4146e-05  7.0527e-06  4.8987e-04  1.8846e-06  4.4229e-07  0:00:19 1341

  iter  continuity  x-velocity  y-velocity  z-velocity      energy         nut     time/iter
  2660  2.3943e-06  1.4016e-05  6.9042e-06  4.9256e-04  1.8443e-06  4.4278e-07  0:00:15 1340
  2661  2.3390e-06  1.3887e-05  6.7568e-06  4.9550e-04  1.8047e-06  4.4336e-07  0:00:12 1339
  2662  2.2845e-06  1.3758e-05  6.6107e-06  4.9857e-04  1.7657e-06  4.4384e-07  0:00:10 1338
  2663  2.2308e-06  1.3631e-05  6.4658e-06  5.0182e-04  1.7275e-06  4.4429e-07  0:00:08 1337
  2664  2.1780e-06  1.3504e-05  6.3221e-06  5.0525e-04  1.6899e-06  4.4464e-07  0:00:06 1336
  2665  2.1259e-06  1.3377e-05  6.1798e-06  5.0888e-04  1.6530e-06  4.4489e-07  0:04:32 1335
  2666  2.0747e-06  1.3252e-05  6.0389e-06  5.1267e-04  1.6168e-06  4.4511e-07  0:03:37 1334
  2667  2.0243e-06  1.3127e-05  5.8993e-06  5.1652e-04  1.5813e-06  4.4528e-07  0:02:54 1333
  2668  1.9748e-06  1.3003e-05  5.7611e-06  5.2041e-04  1.5466e-06  4.4535e-07  0:02:19 1332
  2669  1.9261e-06  1.2880e-05  5.6244e-06  5.2428e-04  1.5126e-06  4.4541e-07  0:01:51 1331
  2670  1.8783e-06  1.2758e-05  5.4892e-06  5.2811e-04  1.4793e-06  4.4545e-07  0:01:29 1330

  iter  continuity  x-velocity  y-velocity  z-velocity      energy         nut     time/iter
  2671  1.8314e-06  1.2637e-05  5.3555e-06  5.3191e-04  1.4467e-06  4.4541e-07  0:01:11 1329
  2672  1.7852e-06  1.2517e-05  5.2233e-06  5.3565e-04  1.4148e-06  4.4536e-07  0:00:57 1328
  2673  1.7400e-06  1.2398e-05  5.0927e-06  5.3932e-04  1.3836e-06  4.4530e-07  0:00:45 1327
  2674  1.6955e-06  1.2280e-05  4.9637e-06  5.4297e-04  1.3531e-06  4.4515e-07  0:00:36 1326
  2675  1.6519e-06  1.2164e-05  4.8364e-06  5.4659e-04  1.3233e-06  4.4491e-07  0:00:29 1325
  2676  1.6091e-06  1.2048e-05  4.7107e-06  5.5020e-04  1.2942e-06  4.4467e-07  0:00:23 1324
  2677  1.5672e-06  1.1934e-05  4.5867e-06  5.5380e-04  1.2657e-06  4.4436e-07  0:00:19 1323
  2678  1.5260e-06  1.1821e-05  4.4645e-06  5.5734e-04  1.2379e-06  4.4403e-07  0:00:15 1322
  2679  1.4856e-06  1.1709e-05  4.3439e-06  5.6088e-04  1.2108e-06  4.4369e-07  0:00:12 1321
  2680  1.4460e-06  1.1599e-05  4.2251e-06  5.6443e-04  1.1842e-06  4.4329e-07  0:00:09 1320
  2681  1.4072e-06  1.1490e-05  4.1080e-06  5.6790e-04  1.1583e-06  4.4281e-07  0:00:08 1319

  iter  continuity  x-velocity  y-velocity  z-velocity      energy         nut     time/iter
  2682  1.3691e-06  1.1382e-05  3.9927e-06  5.7133e-04  1.1329e-06  4.4226e-07  0:04:30 1318
  2683  1.3317e-06  1.1276e-05  3.8793e-06  5.7474e-04  1.1081e-06  4.4165e-07  0:03:36 1317
  2684  1.2950e-06  1.1171e-05  3.7676e-06  5.7814e-04  1.0839e-06  4.4099e-07  0:02:52 1316
  2685  1.2590e-06  1.1068e-05  3.6577e-06  5.8154e-04  1.0601e-06  4.4023e-07  0:02:18 1315
  2686  1.2236e-06  1.0966e-05  3.5496e-06  5.8492e-04  1.0369e-06  4.3947e-07  0:01:50 1314
  2687  1.1889e-06  1.0866e-05  3.4433e-06  5.8827e-04  1.0142e-06  4.3865e-07  0:01:28 1313
  2688  1.1549e-06  1.0767e-05  3.3388e-06  5.9160e-04  9.9196e-07  4.3775e-07  0:01:10 1312
  2689  1.1214e-06  1.0670e-05  3.2361e-06  5.9488e-04  9.7017e-07  4.3675e-07  0:00:56 1311
  2690  1.0886e-06  1.0574e-05  3.1353e-06  5.9812e-04  9.4881e-07  4.3566e-07  0:00:45 1310
  2691  1.0563e-06  1.0480e-05  3.0362e-06  6.0136e-04  9.2787e-07  4.3450e-07  0:00:36 1309
  2692  1.0246e-06  1.0387e-05  2.9389e-06  6.0458e-04  9.0734e-07  4.3324e-07  0:00:29 1308

  iter  continuity  x-velocity  y-velocity  z-velocity      energy         nut     time/iter
  2693  9.9350e-07  1.0296e-05  2.8434e-06  6.0774e-04  8.8720e-07  4.3192e-07  0:00:23 1307
  2694  9.6290e-07  1.0207e-05  2.7497e-06  6.1088e-04  8.6744e-07  4.3052e-07  0:00:18 1306
  2695  9.3282e-07  1.0118e-05  2.6578e-06  6.1388e-04  8.4804e-07  4.2908e-07  0:00:15 1305
  2696  9.0325e-07  1.0032e-05  2.5676e-06  6.1684e-04  8.2899e-07  4.2757e-07  0:00:12 1304
  2697  8.7420e-07  9.9466e-06  2.4791e-06  6.1974e-04  8.1030e-07  4.2599e-07  0:00:09 1303
  2698  8.4565e-07  9.8630e-06  2.3924e-06  6.2257e-04  7.9194e-07  4.2436e-07  0:00:07 1302
  2699  8.1760e-07  9.7808e-06  2.3074e-06  6.2533e-04  7.7393e-07  4.2263e-07  0:00:06 1301
  2700  7.9005e-07  9.7000e-06  2.2241e-06  6.2801e-04  7.5624e-07  4.2082e-07  0:00:05 1300
  2701  7.6300e-07  9.6206e-06  2.1424e-06  6.3061e-04  7.3889e-07  4.1893e-07  0:04:24 1299
  2702  7.3646e-07  9.5427e-06  2.0625e-06  6.3312e-04  7.2188e-07  4.1699e-07  0:03:31 1298
  2703  7.1044e-07  9.4661e-06  1.9843e-06  6.3552e-04  7.0520e-07  4.1501e-07  0:02:48 1297

  iter  continuity  x-velocity  y-velocity  z-velocity      energy         nut     time/iter
  2704  6.8493e-07  9.3908e-06  1.9077e-06  6.3777e-04  6.8887e-07  4.1294e-07  0:02:15 1296
  2705  6.5997e-07  9.3169e-06  1.8328e-06  6.3991e-04  6.7289e-07  4.1077e-07  0:01:48 1295
  2706  6.3556e-07  9.2443e-06  1.7595e-06  6.4193e-04  6.5727e-07  4.0853e-07  0:01:26 1294
  2707  6.1172e-07  9.1730e-06  1.6879e-06  6.4383e-04  6.4202e-07  4.0622e-07  0:01:09 1293
  2708  5.8847e-07  9.1029e-06  1.6179e-06  6.4559e-04  6.2716e-07  4.0383e-07  0:00:55 1292
  2709  5.6585e-07  9.0341e-06  1.5497e-06  6.4713e-04  6.1269e-07  4.0134e-07  0:00:44 1291
  2710  5.4388e-07  8.9664e-06  1.4831e-06  6.4852e-04  5.9863e-07  3.9878e-07  0:00:35 1290
  2711  5.2259e-07  8.9000e-06  1.4181e-06  6.4973e-04  5.8499e-07  3.9616e-07  0:00:28 1289
  2712  5.0202e-07  8.8347e-06  1.3549e-06  6.5076e-04  5.7179e-07  3.9349e-07  0:00:22 1288
  2713  4.8220e-07  8.7706e-06  1.2935e-06  6.5163e-04  5.5904e-07  3.9074e-07  0:00:18 1287
  2714  4.6317e-07  8.7076e-06  1.2337e-06  6.5235e-04  5.4675e-07  3.8795e-07  0:00:14 1286

  iter  continuity  x-velocity  y-velocity  z-velocity      energy         nut     time/iter
  2715  4.4499e-07  8.6457e-06  1.1758e-06  6.5288e-04  5.3495e-07  3.8511e-07  0:00:11 1285
  2716  4.2769e-07  8.5849e-06  1.1197e-06  6.5320e-04  5.2363e-07  3.8223e-07  0:04:26 1284
  2717  4.1132e-07  8.5252e-06  1.0655e-06  6.5333e-04  5.1281e-07  3.7929e-07  0:03:33 1283
  2718  3.9593e-07  8.4665e-06  1.0133e-06  6.5327e-04  5.0250e-07  3.7628e-07  0:02:50 1282
  2719  3.8155e-07  8.4088e-06  9.6314e-07  6.5302e-04  4.9271e-07  3.7322e-07  0:02:16 1281
  2720  3.6824e-07  8.3522e-06  9.1507e-07  6.5258e-04  4.8344e-07  3.7014e-07  0:01:49 1280
  2721  3.5603e-07  8.2965e-06  8.6921e-07  6.5192e-04  4.7469e-07  3.6704e-07  0:01:27 1279
  2722  3.4495e-07  8.2418e-06  8.2568e-07  6.5111e-04  4.6646e-07  3.6388e-07  0:01:09 1278
  2723  3.3503e-07  8.1881e-06  7.8459e-07  6.5010e-04  4.5875e-07  3.6067e-07  0:00:55 1277
  2724  3.2629e-07  8.1354e-06  7.4608e-07  6.4893e-04  4.5156e-07  3.5740e-07  0:00:44 1276
  2725  3.1872e-07  8.0836e-06  7.1028e-07  6.4753e-04  4.4486e-07  3.5412e-07  0:00:35 1275

  iter  continuity  x-velocity  y-velocity  z-velocity      energy         nut     time/iter
  2726  3.1233e-07  8.0327e-06  6.7735e-07  6.4586e-04  4.3866e-07  3.5085e-07  0:00:28 1274
  2727  3.0708e-07  7.9827e-06  6.4744e-07  6.4400e-04  4.3294e-07  3.4753e-07  0:00:23 1273
  2728  3.0295e-07  7.9336e-06  6.2067e-07  6.4199e-04  4.2768e-07  3.4418e-07  0:00:18 1272
  2729  2.9987e-07  7.8855e-06  5.9719e-07  6.3983e-04  4.2286e-07  3.4080e-07  0:00:14 1271
  2730  2.9780e-07  7.8382e-06  5.7710e-07  6.3753e-04  4.1846e-07  3.3737e-07  0:00:12 1270
  2731  2.9666e-07  7.7918e-06  5.6044e-07  6.3508e-04  4.1446e-07  3.3393e-07  0:00:09 1269
  2732  2.9638e-07  7.7462e-06  5.4724e-07  6.3247e-04  4.1085e-07  3.3046e-07  0:00:07 1268
  2733  2.9687e-07  7.7015e-06  5.3745e-07  6.2974e-04  4.0758e-07  3.2696e-07  0:00:06 1267
  2734  2.9804e-07  7.6576e-06  5.3097e-07  6.2686e-04  4.0465e-07  3.2341e-07  0:04:18 1266
  2735  2.9981e-07  7.6145e-06  5.2762e-07  6.2386e-04  4.0202e-07  3.1984e-07  0:03:26 1265
  2736  3.0210e-07  7.5723e-06  5.2718e-07  6.2067e-04  3.9968e-07  3.1629e-07  0:02:45 1264

  iter  continuity  x-velocity  y-velocity  z-velocity      energy         nut     time/iter
  2737  3.0482e-07  7.5308e-06  5.2939e-07  6.1734e-04  3.9759e-07  3.1280e-07  0:02:12 1263
  2738  3.0789e-07  7.4901e-06  5.3396e-07  6.1393e-04  3.9574e-07  3.0929e-07  0:01:45 1262
[...]
  5817  5.4113e-10  1.5929e-09  1.3209e-09  6.4470e-08  4.2187e-10  4.5647e-11  0:00:21  183
  5818  5.3825e-10  1.5845e-09  1.3139e-09  6.4117e-08  4.1961e-10  4.5388e-11  0:00:16  182
  5819  5.3538e-10  1.5761e-09  1.3070e-09  6.3764e-08  4.1737e-10  4.5130e-11  0:00:13  181
  5820  5.3253e-10  1.5678e-09  1.3000e-09  6.3415e-08  4.1514e-10  4.4874e-11  0:00:10  180
  5821  5.2970e-10  1.5595e-09  1.2932e-09  6.3063e-08  4.1292e-10  4.4619e-11  0:00:08  179
  5822  5.2687e-10  1.5513e-09  1.2863e-09  6.2711e-08  4.1071e-10  4.4366e-11  0:00:07  178
  5823  5.2406e-10  1.5431e-09  1.2795e-09  6.2366e-08  4.0851e-10  4.4113e-11  0:00:41  177
  5824  5.2127e-10  1.5350e-09  1.2727e-09  6.2020e-08  4.0633e-10  4.3863e-11  0:00:32  176
  5825  5.1849e-10  1.5269e-09  1.2660e-09  6.1673e-08  4.0415e-10  4.3613e-11  0:00:26  175

  iter  continuity  x-velocity  y-velocity  z-velocity      energy         nut     time/iter
  5826  5.1572e-10  1.5188e-09  1.2593e-09  6.1331e-08  4.0199e-10  4.3365e-11  0:00:20  174
  5827  5.1297e-10  1.5108e-09  1.2526e-09  6.0989e-08  3.9983e-10  4.3119e-11  0:00:16  173
  5828  5.1023e-10  1.5028e-09  1.2460e-09  6.0649e-08  3.9769e-10  4.2873e-11  0:00:13  172
  5829  5.0750e-10  1.4949e-09  1.2394e-09  6.0311e-08  3.9556e-10  4.2629e-11  0:00:10  171
  5830  5.0479e-10  1.4870e-09  1.2328e-09  5.9972e-08  3.9343e-10  4.2387e-11  0:00:08  170
  5831  5.0209e-10  1.4791e-09  1.2262e-09  5.9634e-08  3.9132e-10  4.2146e-11  0:00:07  169
  5832  4.9940e-10  1.4713e-09  1.2197e-09  5.9302e-08  3.8922e-10  4.1906e-11  0:00:05  168
  5833  4.9673e-10  1.4636e-09  1.2132e-09  5.8970e-08  3.8713e-10  4.1667e-11  0:00:38  167
  5834  4.9407e-10  1.4558e-09  1.2068e-09  5.8640e-08  3.8505e-10  4.1430e-11  0:00:30  166
  5835  4.9142e-10  1.4482e-09  1.2003e-09  5.8307e-08  3.8298e-10  4.1195e-11  0:00:24  165
  5836  4.8879e-10  1.4405e-09  1.1939e-09  5.7979e-08  3.8092e-10  4.0960e-11  0:00:19  164

  iter  continuity  x-velocity  y-velocity  z-velocity      energy         nut     time/iter
  5837  4.8617e-10  1.4329e-09  1.1876e-09  5.7653e-08  3.7888e-10  4.0727e-11  0:00:15  163
  5838  4.8356e-10  1.4253e-09  1.1813e-09  5.7330e-08  3.7684e-10  4.0495e-11  0:00:12  162
  5839  4.8097e-10  1.4178e-09  1.1750e-09  5.7005e-08  3.7481e-10  4.0265e-11  0:00:09  161
  5840  4.7839e-10  1.4103e-09  1.1687e-09  5.6682e-08  3.7279e-10  4.0036e-11  0:00:08  160
  5841  4.7582e-10  1.4029e-09  1.1625e-09  5.6363e-08  3.7079e-10  3.9808e-11  0:00:06  159
  5842  4.7327e-10  1.3955e-09  1.1563e-09  5.6040e-08  3.6879e-10  3.9582e-11  0:00:05  158
  5843  4.7073e-10  1.3881e-09  1.1501e-09  5.5722e-08  3.6680e-10  3.9357e-11  0:00:04  157
  5844  4.6820e-10  1.3808e-09  1.1439e-09  5.5406e-08  3.6483e-10  3.9133e-11  0:00:34  156
  5845  4.6568e-10  1.3735e-09  1.1378e-09  5.5092e-08  3.6286e-10  3.8910e-11  0:00:27  155
  5846  4.6318e-10  1.3663e-09  1.1317e-09  5.4778e-08  3.6091e-10  3.8689e-11  0:00:22  154
  5847  4.6069e-10  1.3590e-09  1.1257e-09  5.4467e-08  3.5896e-10  3.8469e-11  0:00:17  153

  iter  continuity  x-velocity  y-velocity  z-velocity      energy         nut     time/iter
  5848  4.5821e-10  1.3519e-09  1.1197e-09  5.4158e-08  3.5702e-10  3.8250e-11  0:00:14  152
  5849  4.5575e-10  1.3447e-09  1.1137e-09  5.3850e-08  3.5510e-10  3.8033e-11  0:00:11  151
  5850  4.5329e-10  1.3376e-09  1.1077e-09  5.3546e-08  3.5318e-10  3.7817e-11  0:00:09  150
  5851  4.5086e-10  1.3306e-09  1.1018e-09  5.3241e-08  3.5128e-10  3.7602e-11  0:00:07  149
  5852  4.4843e-10  1.3236e-09  1.0959e-09  5.2936e-08  3.4938e-10  3.7389e-11  0:00:05  148
  5853  4.4601e-10  1.3166e-09  1.0900e-09  5.2636e-08  3.4749e-10  3.7177e-11  0:00:04  147
  5854  4.4361e-10  1.3096e-09  1.0842e-09  5.2334e-08  3.4562e-10  3.6966e-11  0:00:03  146
  5855  4.4122e-10  1.3027e-09  1.0783e-09  5.2035e-08  3.4375e-10  3.6756e-11  0:00:32  145
  5856  4.3884e-10  1.2958e-09  1.0726e-09  5.1739e-08  3.4189e-10  3.6547e-11  0:00:25  144
  5857  4.3648e-10  1.2890e-09  1.0668e-09  5.1442e-08  3.4005e-10  3.6340e-11  0:00:20  143
  5858  4.3413e-10  1.2822e-09  1.0611e-09  5.1148e-08  3.3821e-10  3.6134e-11  0:00:16  142

  iter  continuity  x-velocity  y-velocity  z-velocity      energy         nut     time/iter
  5859  4.3179e-10  1.2754e-09  1.0554e-09  5.0854e-08  3.3638e-10  3.5930e-11  0:00:13  141
  5860  4.2946e-10  1.2687e-09  1.0497e-09  5.0564e-08  3.3456e-10  3.5726e-11  0:00:10  140
  5861  4.2714e-10  1.2620e-09  1.0441e-09  5.0278e-08  3.3275e-10  3.5524e-11  0:00:08  139
  5862  4.2484e-10  1.2553e-09  1.0384e-09  4.9990e-08  3.3096e-10  3.5323e-11  0:00:06  138
  5863  4.2254e-10  1.2487e-09  1.0329e-09  4.9703e-08  3.2917e-10  3.5123e-11  0:00:05  137
  5864  4.2026e-10  1.2421e-09  1.0273e-09  4.9418e-08  3.2739e-10  3.4924e-11  0:00:04  136
  5865  4.1799e-10  1.2356e-09  1.0218e-09  4.9136e-08  3.2561e-10  3.4727e-11  0:00:03  135
  5866  4.1574e-10  1.2290e-09  1.0163e-09  4.8851e-08  3.2385e-10  3.4530e-11  0:00:29  134
  5867  4.1349e-10  1.2226e-09  1.0108e-09  4.8571e-08  3.2210e-10  3.4335e-11  0:00:23  133
  5868  4.1126e-10  1.2161e-09  1.0054e-09  4.8292e-08  3.2036e-10  3.4141e-11  0:00:18  132
  5869  4.0904e-10  1.2097e-09  9.9995e-10  4.8014e-08  3.1862e-10  3.3949e-11  0:00:15  131

  iter  continuity  x-velocity  y-velocity  z-velocity      energy         nut     time/iter
  5870  4.0683e-10  1.2033e-09  9.9457e-10  4.7737e-08  3.1690e-10  3.3757e-11  0:00:12  130
  5871  4.0463e-10  1.1970e-09  9.8921e-10  4.7462e-08  3.1518e-10  3.3567e-11  0:00:09  129
  5872  4.0244e-10  1.1906e-09  9.8388e-10  4.7188e-08  3.1348e-10  3.3378e-11  0:00:07  128
  5873  4.0027e-10  1.1844e-09  9.7857e-10  4.6916e-08  3.1178e-10  3.3189e-11  0:00:06  127
  5874  3.9811e-10  1.1781e-09  9.7330e-10  4.6647e-08  3.1009e-10  3.3003e-11  0:00:05  126
  5875  3.9595e-10  1.1719e-09  9.6805e-10  4.6378e-08  3.0841e-10  3.2817e-11  0:00:04  125
  5876  3.9381e-10  1.1657e-09  9.6283e-10  4.6110e-08  3.0674e-10  3.2632e-11  0:00:28  124
  5877  3.9168e-10  1.1596e-09  9.5763e-10  4.5844e-08  3.0508e-10  3.2449e-11  0:00:22  123
  5878  3.8957e-10  1.1535e-09  9.5246e-10  4.5580e-08  3.0343e-10  3.2266e-11  0:00:17  122
  5879  3.8746e-10  1.1474e-09  9.4732e-10  4.5318e-08  3.0179e-10  3.2085e-11  0:00:14  121
  5880  3.8536e-10  1.1413e-09  9.4221e-10  4.5055e-08  3.0015e-10  3.1905e-11  0:00:11  120

  iter  continuity  x-velocity  y-velocity  z-velocity      energy         nut     time/iter
  5881  3.8328e-10  1.1353e-09  9.3712e-10  4.4796e-08  2.9853e-10  3.1726e-11  0:00:09  119
  5882  3.8121e-10  1.1293e-09  9.3206e-10  4.4538e-08  2.9691e-10  3.1548e-11  0:00:07  118
  5883  3.7914e-10  1.1233e-09  9.2703e-10  4.4281e-08  2.9530e-10  3.1371e-11  0:00:05  117
  5884  3.7709e-10  1.1174e-09  9.2202e-10  4.4025e-08  2.9370e-10  3.1195e-11  0:00:04  116
  5885  3.7505e-10  1.1115e-09  9.1704e-10  4.3773e-08  2.9211e-10  3.1021e-11  0:00:03  115
  5886  3.7302e-10  1.1057e-09  9.1208e-10  4.3520e-08  2.9053e-10  3.0847e-11  0:00:03  114
  5887  3.7100e-10  1.0998e-09  9.0715e-10  4.3269e-08  2.8895e-10  3.0675e-11  0:00:25  113
  5888  3.6900e-10  1.0940e-09  9.0225e-10  4.3017e-08  2.8739e-10  3.0503e-11  0:00:20  112
  5889  3.6700e-10  1.0883e-09  8.9737e-10  4.2770e-08  2.8583e-10  3.0333e-11  0:00:16  111
  5890  3.6501e-10  1.0825e-09  8.9252e-10  4.2523e-08  2.8428e-10  3.0164e-11  0:00:12  110
  5891  3.6304e-10  1.0768e-09  8.8769e-10  4.2279e-08  2.8274e-10  2.9996e-11  0:00:10  109

  iter  continuity  x-velocity  y-velocity  z-velocity      energy         nut     time/iter
  5892  3.6107e-10  1.0711e-09  8.8289e-10  4.2035e-08  2.8121e-10  2.9829e-11  0:00:08  108
  5893  3.5912e-10  1.0655e-09  8.7812e-10  4.1791e-08  2.7969e-10  2.9663e-11  0:00:06  107
  5894  3.5718e-10  1.0599e-09  8.7337e-10  4.1553e-08  2.7817e-10  2.9497e-11  0:00:05  106
  5895  3.5524e-10  1.0543e-09  8.6864e-10  4.1313e-08  2.7667e-10  2.9334e-11  0:00:04  105
  5896  3.5332e-10  1.0487e-09  8.6394e-10  4.1073e-08  2.7517e-10  2.9171e-11  0:00:03  104
  5897  3.5141e-10  1.0432e-09  8.5927e-10  4.0835e-08  2.7368e-10  2.9009e-11  0:00:23  103
  5898  3.4951e-10  1.0377e-09  8.5462e-10  4.0600e-08  2.7220e-10  2.8848e-11  0:00:18  102
  5899  3.4762e-10  1.0322e-09  8.4999e-10  4.0367e-08  2.7072e-10  2.8688e-11  0:00:14  101
  5900  3.4573e-10  1.0268e-09  8.4539e-10  4.0134e-08  2.6926e-10  2.8529e-11  0:00:11  100
  5901  3.4386e-10  1.0214e-09  8.4082e-10  3.9902e-08  2.6780e-10  2.8371e-11  0:00:09   99
  5902  3.4200e-10  1.0160e-09  8.3627e-10  3.9671e-08  2.6635e-10  2.8214e-11  0:00:07   98

  iter  continuity  x-velocity  y-velocity  z-velocity      energy         nut     time/iter
  5903  3.4015e-10  1.0106e-09  8.3174e-10  3.9442e-08  2.6491e-10  2.8058e-11  0:00:06   97
  5904  3.3831e-10  1.0053e-09  8.2724e-10  3.9215e-08  2.6347e-10  2.7903e-11  0:00:05   96
  5905  3.3648e-10  1.0000e-09  8.2276e-10  3.8989e-08  2.6205e-10  2.7749e-11  0:00:04   95
  5906  3.3466e-10  9.9474e-10  8.1830e-10  3.8765e-08  2.6063e-10  2.7596e-11  0:00:03   94
  5907  3.3285e-10  9.8950e-10  8.1387e-10  3.8543e-08  2.5922e-10  2.7444e-11  0:00:02   93
  5908  3.3105e-10  9.8429e-10  8.0947e-10  3.8321e-08  2.5782e-10  2.7293e-11  0:00:20   92
  5909  3.2926e-10  9.7910e-10  8.0509e-10  3.8099e-08  2.5642e-10  2.7143e-11  0:00:16   91
  5910  3.2748e-10  9.7394e-10  8.0073e-10  3.7880e-08  2.5503e-10  2.6994e-11  0:00:13   90
  5911  3.2571e-10  9.6881e-10  7.9639e-10  3.7666e-08  2.5365e-10  2.6846e-11  0:00:10   89
  5912  3.2395e-10  9.6371e-10  7.9208e-10  3.7450e-08  2.5228e-10  2.6699e-11  0:00:08   88
  5913  3.2219e-10  9.5863e-10  7.8779e-10  3.7232e-08  2.5092e-10  2.6552e-11  0:00:06   87

  iter  continuity  x-velocity  y-velocity  z-velocity      energy         nut     time/iter
  5914  3.2045e-10  9.5358e-10  7.8353e-10  3.7018e-08  2.4956e-10  2.6407e-11  0:00:05   86
  5915  3.1872e-10  9.4856e-10  7.7928e-10  3.6806e-08  2.4821e-10  2.6262e-11  0:00:04   85
  5916  3.1700e-10  9.4356e-10  7.7507e-10  3.6595e-08  2.4687e-10  2.6119e-11  0:00:03   84
  5917  3.1528e-10  9.3859e-10  7.7087e-10  3.6387e-08  2.4554e-10  2.5976e-11  0:00:02   83
  5918  3.1358e-10  9.3365e-10  7.6670e-10  3.6177e-08  2.4421e-10  2.5834e-11  0:00:02   82
  5919  3.1189e-10  9.2873e-10  7.6255e-10  3.5969e-08  2.4289e-10  2.5693e-11  0:00:18   81
  5920  3.1020e-10  9.2384e-10  7.5842e-10  3.5764e-08  2.4158e-10  2.5553e-11  0:00:14   80
  5921  3.0853e-10  9.1898e-10  7.5431e-10  3.5557e-08  2.4028e-10  2.5414e-11  0:00:11   79
  5922  3.0686e-10  9.1414e-10  7.5023e-10  3.5354e-08  2.3898e-10  2.5276e-11  0:00:09   78
  5923  3.0520e-10  9.0933e-10  7.4617e-10  3.5151e-08  2.3769e-10  2.5138e-11  0:00:07   77
  5924  3.0355e-10  9.0454e-10  7.4213e-10  3.4950e-08  2.3641e-10  2.5002e-11  0:00:05   76

  iter  continuity  x-velocity  y-velocity  z-velocity      energy         nut     time/iter
  5925  3.0192e-10  8.9978e-10  7.3812e-10  3.4752e-08  2.3513e-10  2.4866e-11  0:00:04   75
  5926  3.0029e-10  8.9504e-10  7.3412e-10  3.4552e-08  2.3386e-10  2.4731e-11  0:00:03   74
  5927  2.9866e-10  8.9033e-10  7.3015e-10  3.4353e-08  2.3260e-10  2.4597e-11  0:00:03   73
  5928  2.9705e-10  8.8564e-10  7.2620e-10  3.4156e-08  2.3134e-10  2.4464e-11  0:00:02   72
  5929  2.9545e-10  8.8098e-10  7.2227e-10  3.3960e-08  2.3010e-10  2.4332e-11  0:00:16   71
  5930  2.9386e-10  8.7634e-10  7.1837e-10  3.3765e-08  2.2886e-10  2.4200e-11  0:00:13   70
  5931  2.9227e-10  8.7173e-10  7.1448e-10  3.3576e-08  2.2762e-10  2.4070e-11  0:00:10   69
  5932  2.9070e-10  8.6714e-10  7.1062e-10  3.3383e-08  2.2640e-10  2.3940e-11  0:00:08   68
  5933  2.8913e-10  8.6258e-10  7.0678e-10  3.3195e-08  2.2518e-10  2.3811e-11  0:00:06   67
  5934  2.8757e-10  8.5804e-10  7.0295e-10  3.3007e-08  2.2396e-10  2.3683e-11  0:00:05   66
  5935  2.8602e-10  8.5353e-10  6.9915e-10  3.2820e-08  2.2276e-10  2.3555e-11  0:00:04   65

  iter  continuity  x-velocity  y-velocity  z-velocity      energy         nut     time/iter
  5936  2.8448e-10  8.4904e-10  6.9537e-10  3.2631e-08  2.2156e-10  2.3429e-11  0:00:03   64
  5937  2.8295e-10  8.4457e-10  6.9162e-10  3.2448e-08  2.2037e-10  2.3303e-11  0:00:02   63
  5938  2.8142e-10  8.4013e-10  6.8788e-10  3.2263e-08  2.1918e-10  2.3178e-11  0:00:02   62
  5939  2.7991e-10  8.3571e-10  6.8416e-10  3.2078e-08  2.1800e-10  2.3054e-11  0:00:01   61
  5940  2.7840e-10  8.3131e-10  6.8047e-10  3.1897e-08  2.1683e-10  2.2930e-11  0:00:01   60
  5941  2.7690e-10  8.2694e-10  6.7679e-10  3.1716e-08  2.1566e-10  2.2807e-11  0:00:01   59
  5942  2.7541e-10  8.2259e-10  6.7314e-10  3.1536e-08  2.1450e-10  2.2685e-11  0:00:12   58
  5943  2.7393e-10  8.1826e-10  6.6950e-10  3.1357e-08  2.1335e-10  2.2564e-11  0:00:10   57
  5944  2.7246e-10  8.1396e-10  6.6589e-10  3.1180e-08  2.1221e-10  2.2444e-11  0:00:08   56
  5945  2.7099e-10  8.0968e-10  6.6229e-10  3.1003e-08  2.1107e-10  2.2324e-11  0:00:06   55
  5946  2.6953e-10  8.0542e-10  6.5872e-10  3.0829e-08  2.0993e-10  2.2205e-11  0:00:05   54

  iter  continuity  x-velocity  y-velocity  z-velocity      energy         nut     time/iter
  5947  2.6808e-10  8.0118e-10  6.5516e-10  3.0657e-08  2.0881e-10  2.2087e-11  0:00:04   53
  5948  2.6664e-10  7.9697e-10  6.5163e-10  3.0485e-08  2.0769e-10  2.1970e-11  0:00:03   52
  5949  2.6521e-10  7.9278e-10  6.4811e-10  3.0314e-08  2.0657e-10  2.1853e-11  0:00:02   51
  5950  2.6379e-10  7.8861e-10  6.4462e-10  3.0144e-08  2.0546e-10  2.1737e-11  0:00:02   50
  5951  2.6237e-10  7.8447e-10  6.4114e-10  2.9973e-08  2.0436e-10  2.1622e-11  0:00:01   49
  5952  2.6096e-10  7.8034e-10  6.3769e-10  2.9803e-08  2.0327e-10  2.1507e-11  0:00:01   48
  5953  2.5956e-10  7.7624e-10  6.3425e-10  2.9636e-08  2.0218e-10  2.1393e-11  0:00:01   47
  5954  2.5817e-10  7.7216e-10  6.3083e-10  2.9471e-08  2.0109e-10  2.1280e-11  0:00:01   46
  5955  2.5678e-10  7.6810e-10  6.2743e-10  2.9308e-08  2.0002e-10  2.1167e-11  0:00:01   45
  5956  2.5541e-10  7.6407e-10  6.2405e-10  2.9143e-08  1.9894e-10  2.1056e-11  0:00:00   44
  5957  2.5404e-10  7.6005e-10  6.2069e-10  2.8980e-08  1.9788e-10  2.0945e-11  0:00:00   43

  iter  continuity  x-velocity  y-velocity  z-velocity      energy         nut     time/iter
  5958  2.5267e-10  7.5606e-10  6.1735e-10  2.8817e-08  1.9682e-10  2.0834e-11  0:00:00   42
  5959  2.5132e-10  7.5209e-10  6.1403e-10  2.8657e-08  1.9577e-10  2.0724e-11  0:00:00   41
  5960  2.4997e-10  7.4813e-10  6.1072e-10  2.8499e-08  1.9472e-10  2.0615e-11  0:00:08   40
  5961  2.4864e-10  7.4420e-10  6.0744e-10  2.8340e-08  1.9368e-10  2.0507e-11  0:00:06   39
  5962  2.4730e-10  7.4029e-10  6.0417e-10  2.8183e-08  1.9264e-10  2.0399e-11  0:00:05   38
  5963  2.4598e-10  7.3640e-10  6.0092e-10  2.8026e-08  1.9162e-10  2.0292e-11  0:00:04   37
  5964  2.4466e-10  7.3254e-10  5.9769e-10  2.7868e-08  1.9059e-10  2.0186e-11  0:00:03   36
  5965  2.4336e-10  7.2869e-10  5.9448e-10  2.7715e-08  1.8957e-10  2.0080e-11  0:00:02   35
  5966  2.4205e-10  7.2486e-10  5.9128e-10  2.7561e-08  1.8856e-10  1.9975e-11  0:00:02   34
  5967  2.4076e-10  7.2105e-10  5.8811e-10  2.7411e-08  1.8756e-10  1.9870e-11  0:00:01   33
  5968  2.3947e-10  7.1727e-10  5.8495e-10  2.7258e-08  1.8656e-10  1.9767e-11  0:00:01   32

  iter  continuity  x-velocity  y-velocity  z-velocity      energy         nut     time/iter
  5969  2.3819e-10  7.1350e-10  5.8181e-10  2.7108e-08  1.8556e-10  1.9663e-11  0:00:01   31
  5970  2.3692e-10  7.0975e-10  5.7868e-10  2.6957e-08  1.8457e-10  1.9561e-11  0:00:01   30
  5971  2.3566e-10  7.0603e-10  5.7558e-10  2.6810e-08  1.8359e-10  1.9459e-11  0:00:01   29
  5972  2.3440e-10  7.0232e-10  5.7249e-10  2.6663e-08  1.8261e-10  1.9357e-11  0:00:00   28
  5973  2.3315e-10  6.9863e-10  5.6942e-10  2.6519e-08  1.8164e-10  1.9257e-11  0:00:00   27
  5974  2.3190e-10  6.9496e-10  5.6637e-10  2.6371e-08  1.8067e-10  1.9156e-11  0:00:00   26
  5975  2.3067e-10  6.9131e-10  5.6333e-10  2.6228e-08  1.7971e-10  1.9057e-11  0:00:00   25
  5976  2.2944e-10  6.8769e-10  5.6031e-10  2.6081e-08  1.7875e-10  1.8958e-11  0:00:00   24
  5977  2.2821e-10  6.8408e-10  5.5731e-10  2.5940e-08  1.7780e-10  1.8860e-11  0:00:00   23
  5978  2.2700e-10  6.8048e-10  5.5432e-10  2.5799e-08  1.7686e-10  1.8762e-11  0:00:00   22
  5979  2.2579e-10  6.7691e-10  5.5135e-10  2.5656e-08  1.7592e-10  1.8665e-11  0:00:04   21

  iter  continuity  x-velocity  y-velocity  z-velocity      energy         nut     time/iter
  5980  2.2459e-10  6.7336e-10  5.4840e-10  2.5515e-08  1.7498e-10  1.8568e-11  0:00:03   20
  5981  2.2339e-10  6.6983e-10  5.4547e-10  2.5374e-08  1.7405e-10  1.8472e-11  0:00:02   19
  5982  2.2220e-10  6.6631e-10  5.4255e-10  2.5238e-08  1.7313e-10  1.8376e-11  0:00:02   18
  5983  2.2102e-10  6.6281e-10  5.3965e-10  2.5099e-08  1.7221e-10  1.8282e-11  0:00:01   17
  5984  2.1984e-10  6.5934e-10  5.3676e-10  2.4962e-08  1.7129e-10  1.8187e-11  0:00:01   16
  5985  2.1867e-10  6.5588e-10  5.3389e-10  2.4826e-08  1.7039e-10  1.8093e-11  0:00:01   15
  5986  2.1751e-10  6.5243e-10  5.3104e-10  2.4693e-08  1.6948e-10  1.8000e-11  0:00:01   14
  5987  2.1636e-10  6.4901e-10  5.2820e-10  2.4559e-08  1.6858e-10  1.7907e-11  0:00:00   13
  5988  2.1521e-10  6.4561e-10  5.2538e-10  2.4426e-08  1.6769e-10  1.7815e-11  0:00:00   12
  5989  2.1406e-10  6.4222e-10  5.2258e-10  2.4290e-08  1.6680e-10  1.7724e-11  0:00:00   11
  5990  2.1293e-10  6.3885e-10  5.1979e-10  2.4159e-08  1.6592e-10  1.7633e-11  0:00:00   10

  iter  continuity  x-velocity  y-velocity  z-velocity      energy         nut     time/iter
  5991  2.1180e-10  6.3550e-10  5.1701e-10  2.4030e-08  1.6504e-10  1.7542e-11  0:00:00    9
  5992  2.1067e-10  6.3216e-10  5.1426e-10  2.3899e-08  1.6417e-10  1.7452e-11  0:00:00    8
  5993  2.0956e-10  6.2885e-10  5.1151e-10  2.3770e-08  1.6330e-10  1.7363e-11  0:00:00    7
  5994  2.0845e-10  6.2555e-10  5.0879e-10  2.3641e-08  1.6243e-10  1.7274e-11  0:00:00    6
  5995  2.0734e-10  6.2227e-10  5.0608e-10  2.3514e-08  1.6158e-10  1.7185e-11  0:00:00    5
  5996  2.0624e-10  6.1901e-10  5.0338e-10  2.3388e-08  1.6072e-10  1.7097e-11  0:00:01    4
  5997  2.0515e-10  6.1576e-10  5.0070e-10  2.3264e-08  1.5987e-10  1.7010e-11  0:00:00    3
  5998  2.0406e-10  6.1253e-10  4.9803e-10  2.3140e-08  1.5903e-10  1.6923e-11  0:00:00    2
  5999  2.0298e-10  6.0932e-10  4.9538e-10  2.3015e-08  1.5819e-10  1.6836e-11  0:00:00    1
  6000  2.0191e-10  6.0612e-10  4.9275e-10  2.2891e-08  1.5735e-10  1.6750e-11  0:00:00    0

Calculation complete.
(cx-gui-do cx-activate-item "Information*OK")
(cx-gui-do cx-set-list-tree-selections "NavigationPane*Frame2*Table1*List_Tree2" (list "Results|Reports|Forces"))
(cx-gui-do cx-set-list-tree-selections "NavigationPane*Frame2*Table1*List_Tree2" (list "Results|Reports|Forces"))
(cx-gui-do cx-activate-item "NavigationPane*Frame2*Table1*List_Tree2")
(cx-gui-do cx-set-list-tree-selections "NavigationPane*Frame2*Table1*List_Tree2" (list "Results|Reports|Forces"))

adjoint/                parallel/               server/
define/                 parametric-study/       solve/
display/                plot/                   surface/
exit                    preferences/            turbo-workflow/
file/                   print-license-usage     views/
mesh/                   report/

> /report/forces/wall-forces y -0.15643 0.98769 0 y "Lift"
File "Lift" exists.
Append data to it? [yes] y

> /report/forces/wall-forces y 0.98769 0.15643 0 y "Drag"
File "Drag" exists.
Append data to it? [yes] y

> (cx-gui-do cx-activate-item "Force Reports*PanelButtons*PushButton2(Cancel)")
/exit y

Posting ANSYS Product Improvement Program performance data 
Done.
(cx-gui-do cx-activate-item "Question*OK")
Auto-Transcript Stop Time:  15:46:20, 21 May 2024 GMT Daylight Time 
Total Transcript Time: 1 Hour 19 Minute 27 Second.
