Auto-Transcript Start Time:  10:42:30, 21 May 2024 GMT Daylight Time 
Current Directory: "C:\Users\kebl7595\Desktop\CFD\Runs\Viscous\9 degrees"

              Welcome to ANSYS Fluent 2023 R1

              Copyright 1987-2023 ANSYS, Inc. All Rights Reserved.
              Unauthorized use, distribution or duplication is prohibited.
              This product is subject to U.S. laws governing export and re-export.
              For full Legal Notice, see documentation.

Build Time: Nov 28 2022 09:52:02 EST  Build Id: 10208  
 
Connected License Server List:	1055@ansyslic.eng.ox.ac.uk

*********************************************
Info: Your license enables 4-way parallel execution.
For faster simulations, please start the application with the appropriate parallel options.
*********************************************


     --------------------------------------------------------------
     This is an academic version of ANSYS FLUENT. Usage of this product
     license is limited to the terms and conditions specified in your ANSYS
     license form, additional terms section.
     --------------------------------------------------------------
Host spawning Node 0 on machine "Engs-30669" (win64).

------------------------------------------------------------------------------------
ID    Hostname    Core  O.S.         PID    Vendor                                 
------------------------------------------------------------------------------------
n0    Engs-30669  1/32  Windows-x64  50396  13th Gen Intel(R) Core(TM) i9-13900    
host  Engs-30669        Windows-x64  10680  13th Gen Intel(R) Core(TM) i9-13900    

MPI Option Selected: intel
------------------------------------------------------------------------------------

Cleanup script file is C:\\Users\\kebl7595\\Desktop\\CFD\\Runs\\Viscous\\9 degrees\\cleanup-fluent-Engs-30669-10680.bat
QA Service Message :
QA Services Agreement Enabled. This application is included in the scope of an ANSYS QA Services Agreement.
Posting ANSYS Product Improvement Program startup data
Done.

Reading journal file C:/Users/kebl7595/Desktop/CFD/Runs/Viscous/9 degrees/project1.jou...

> /file/set-batch-options no no no 

> 
define/                 parametric-study/       solve/
display/                plot/                   surface/
exit                    preferences/            switch-to-meshing-mode
file/                   print-license-usage     turbo-workflow/
mesh/                   report/                 views/
parallel/               server/

> /file/import/cgns/mesh  "./project1.cgns"
Engs-30669 has other FLUENT parallel processes running.                       Process affinity not being set.

Importing "./project1.cgns"

Opening library "C:\\PROGRA~1\\ANSYSI~1\\v231\\fluent\\fluent23.1.0\\vki\\win64\\devtools4.4.6.dll"... done.

Read    17864 nodes
   12996 hexahedral cells, zone  1
    9462 quadrilateral wall faces, zone  2.
   33972 quadrilateral interior faces, zone  3.
     282 quadrilateral interface faces, zone  4.
       6 quadrilateral wall faces, zone  5.

Building...
     mesh
     materials,
     interface,
     domains,
     zones,
	default_exterior-1
	interface-default_subface
	default_interior-1
	default_subface
	default
     parallel,
The automatic selection for flux type has changed to Rhie-Chow: momentum based.

Done.


> 
adjoint/                parallel/               server/
define/                 parametric-study/       solve/
display/                plot/                   surface/
exit                    preferences/            turbo-workflow/
file/                   print-license-usage     views/
mesh/                   report/

> /define/models/solver/density-based-implicit yes

> 
adjoint/                parallel/               server/
define/                 parametric-study/       solve/
display/                plot/                   surface/
exit                    preferences/            turbo-workflow/
file/                   print-license-usage     views/
mesh/                   report/

> /define/models/energy? yes yes invalid command [yes]
yes

> /define/models/viscous/kw-standard? yes

> 
adjoint/                parallel/               server/
define/                 parametric-study/       solve/
display/                plot/                   surface/
exit                    preferences/            turbo-workflow/
file/                   print-license-usage     views/
mesh/                   report/

> /define/materials/change-create air air air is a fluid
yes 
Density
ideal-gas no data required.

no no no no no no

> 
adjoint/                parallel/               server/
define/                 parametric-study/       solve/
display/                plot/                   surface/
exit                    preferences/            turbo-workflow/
file/                   print-license-usage     views/
mesh/                   report/

> /mesh/modify-zones/sep-face-zone-angle 2 90 yes

 4332 faces in contiguous region 0
 228 faces in contiguous region 1
 342 faces in contiguous region 2
 4332 faces in contiguous region 3
 228 faces in contiguous region 4
 Separates zone 2 into 5 zone(s).
Updating new zone information...
   created new zone default_subface:010 from default_subface
   created new zone default_subface:009 from default_subface
   created new zone default_subface:008 from default_subface
   created new zone default_subface:007 from default_subface
done.

> 
adjoint/                parallel/               server/
define/                 parametric-study/       solve/
display/                plot/                   surface/
exit                    preferences/            turbo-workflow/
file/                   print-license-usage     views/
mesh/                   report/

> /define/boundary-conditions/zone-name  5   te

> /define/boundary-conditions/zone-name  7 wing

> /define/boundary-conditions/zone-name  2 sym1

> /define/boundary-conditions/zone-name  9 sym2

> 
adjoint/                parallel/               server/
define/                 parametric-study/       solve/
display/                plot/                   surface/
exit                    preferences/            turbo-workflow/
file/                   print-license-usage     views/
mesh/                   report/

> /define/boundary-conditions/zone-name  8 far1

> /define/boundary-conditions/zone-name 10 far2

> 
adjoint/                parallel/               server/
define/                 parametric-study/       solve/
display/                plot/                   surface/
exit                    preferences/            turbo-workflow/
file/                   print-license-usage     views/
mesh/                   report/

> /define/boundary-conditions/zone-type  8 pressure-far-field

> /define/boundary-conditions/zone-type 10 pressure-far-field

> /define/boundary-conditions/zone-type  2 symmetry

> /define/boundary-conditions/zone-type  9 symmetry

> 
adjoint/                parallel/               server/
define/                 parametric-study/       solve/
display/                plot/                   surface/
exit                    preferences/            turbo-workflow/
file/                   print-license-usage     views/
mesh/                   report/

> /define/boundary-conditions/pressure-far-field (far2 far1)
far1 no 0 no 0.1 no 300 yes no 0.98769 no 0.15643 no 0. no yes 5 0.02

> /define/boundary-conditions/pressure-far-field (far2 far1)
far2 no 0 no 0.1 no 300 yes no 0.98769 no 0.15643 no 0. no yes 5 0.02

> 
adjoint/                parallel/               server/
define/                 parametric-study/       solve/
display/                plot/                   surface/
exit                    preferences/            turbo-workflow/
file/                   print-license-usage     views/
mesh/                   report/

> /solve/initialize/compute-defaults/pressure-far-field (far2 far1)
far1

> /solve/initialize/initialize-flow

> 
adjoint/                parallel/               server/
define/                 parametric-study/       solve/
display/                plot/                   surface/
exit                    preferences/            turbo-workflow/
file/                   print-license-usage     views/
mesh/                   report/

> /solve/monitors/residual/convergence-criteria 1.e-9 1.e-9 1.e-9 1.e-9 1.e-9 1.e-9 1.e-9

> /solve/iterate 2000

  iter  continuity  x-velocity  y-velocity  z-velocity      energy           k       omega     time/iter
     1  1.0000e+00  1.0000e+00  1.0000e+00  1.0000e+00  1.0000e+00  1.7734e-01  1.3080e-01  0:00:00 1999
     2  5.1291e-01  3.9416e-01  4.3715e-01  1.0000e+00  5.1350e-01  1.3462e-01  1.0378e-01  0:33:18 1998
     3  2.8902e-01  2.0161e-01  2.2840e-01  9.9410e-01  2.8924e-01  1.0574e-01  8.5040e-02  0:26:38 1997
     4  1.8500e-01  1.4805e-01  1.4796e-01  7.1783e-01  1.8505e-01  8.6220e-02  7.1147e-02  0:21:17 1996
     5  1.3427e-01  1.2318e-01  1.0265e-01  6.3775e-01  1.3429e-01  7.3218e-02  6.0869e-02  0:17:01 1995
     6  1.0807e-01  9.2403e-02  7.2953e-02  7.7516e-01  1.0811e-01  6.3289e-02  5.3373e-02  0:13:37 1994
     7  9.2199e-02  7.0396e-02  5.3688e-02  7.7748e-01  9.2273e-02  5.5280e-02  4.7384e-02  0:10:53 1993
     8  8.0172e-02  5.5765e-02  4.1591e-02  7.4075e-01  8.0270e-02  4.8708e-02  4.2397e-02  0:08:42 1992
     9  7.0712e-02  4.6002e-02  3.3988e-02  6.8040e-01  7.0822e-02  4.3303e-02  3.8202e-02  0:06:58 1991
    10  6.3245e-02  3.9780e-02  2.8940e-02  6.2557e-01  6.3355e-02  3.8866e-02  3.4632e-02  0:05:34 1990
    11  5.7559e-02  3.6509e-02  2.5268e-02  5.7684e-01  5.7664e-02  3.5225e-02  3.1575e-02  0:11:05 1989

  iter  continuity  x-velocity  y-velocity  z-velocity      energy           k       omega     time/iter
    12  5.3500e-02  3.5167e-02  2.2455e-02  5.3742e-01  5.3596e-02  3.2171e-02  2.8965e-02  0:08:52 1988
    13  5.0935e-02  3.5070e-02  2.0247e-02  5.1340e-01  5.1024e-02  2.9562e-02  2.6721e-02  0:07:05 1987
    14  4.9638e-02  3.5703e-02  1.8538e-02  5.0963e-01  4.9719e-02  2.7329e-02  2.4759e-02  0:05:40 1986
    15  4.9413e-02  3.6828e-02  1.7296e-02  5.2320e-01  4.9486e-02  2.5389e-02  2.3024e-02  0:04:32 1985
    16  5.0014e-02  3.8316e-02  1.6474e-02  5.4594e-01  5.0079e-02  2.3700e-02  2.1493e-02  0:03:37 1984
    17  5.1204e-02  4.0050e-02  1.6048e-02  5.7825e-01  5.1262e-02  2.2193e-02  2.0135e-02  0:02:54 1983
    18  5.2769e-02  4.1945e-02  1.5919e-02  6.1826e-01  5.2820e-02  2.0841e-02  1.8912e-02  0:02:19 1982
    19  5.4526e-02  4.3869e-02  1.6088e-02  6.6378e-01  5.4569e-02  1.9631e-02  1.7805e-02  0:01:51 1981
    20  5.6310e-02  4.5709e-02  1.6447e-02  7.1363e-01  5.6345e-02  1.8534e-02  1.6805e-02  0:08:05 1980
    21  5.7989e-02  4.7242e-02  1.7030e-02  7.6690e-01  5.8014e-02  1.7527e-02  1.5898e-02  0:06:28 1979
    22  5.9424e-02  4.8379e-02  1.7797e-02  8.1992e-01  5.9438e-02  1.6608e-02  1.5071e-02  0:05:10 1978

  iter  continuity  x-velocity  y-velocity  z-velocity      energy           k       omega     time/iter
    23  6.0508e-02  4.9251e-02  1.8593e-02  8.6792e-01  6.0510e-02  1.5767e-02  1.4317e-02  0:04:08 1977
    24  6.1170e-02  4.9817e-02  1.9385e-02  9.0704e-01  6.1159e-02  1.4999e-02  1.3615e-02  0:03:18 1976
    25  6.1349e-02  4.9901e-02  2.0236e-02  9.3290e-01  6.1324e-02  1.4292e-02  1.2971e-02  0:02:38 1975
    26  6.0995e-02  4.9540e-02  2.1026e-02  9.4278e-01  6.0956e-02  1.3631e-02  1.2372e-02  0:02:07 1974
    27  6.0098e-02  4.8696e-02  2.1716e-02  9.3422e-01  6.0044e-02  1.3012e-02  1.1813e-02  0:01:41 1973
    28  5.8635e-02  4.7329e-02  2.2203e-02  9.0372e-01  5.8568e-02  1.2431e-02  1.1288e-02  0:01:21 1972
    29  5.6658e-02  4.5603e-02  2.2552e-02  8.6065e-01  5.6578e-02  1.1891e-02  1.0801e-02  0:01:05 1971
    30  5.4213e-02  4.3829e-02  2.2658e-02  8.0645e-01  5.4122e-02  1.1387e-02  1.0345e-02  0:00:52 1970
    31  5.1360e-02  4.2081e-02  2.2664e-02  7.3940e-01  5.1259e-02  1.0914e-02  9.9174e-03  0:00:41 1969
    32  4.8153e-02  4.0387e-02  2.2630e-02  6.6687e-01  4.8044e-02  1.0469e-02  9.5116e-03  0:07:07 1968
    33  4.4645e-02  3.8718e-02  2.2563e-02  6.0140e-01  4.4529e-02  1.0051e-02  9.1314e-03  0:05:41 1967

  iter  continuity  x-velocity  y-velocity  z-velocity      energy           k       omega     time/iter
    34  4.0931e-02  3.7382e-02  2.2583e-02  5.5945e-01  4.0810e-02  9.6536e-03  8.7667e-03  0:04:33 1966
    35  3.7066e-02  3.6305e-02  2.2745e-02  5.5025e-01  3.6941e-02  9.2801e-03  8.4105e-03  0:03:38 1965
    36  3.3107e-02  3.5521e-02  2.3086e-02  5.7024e-01  3.2981e-02  8.9331e-03  8.0702e-03  0:02:54 1964
    37  2.9142e-02  3.5153e-02  2.3598e-02  6.1792e-01  2.9015e-02  8.6140e-03  7.7496e-03  0:02:19 1963
    38  2.5235e-02  3.5160e-02  2.4289e-02  6.8115e-01  2.5109e-02  8.3121e-03  7.4390e-03  0:01:52 1962
    39  2.1471e-02  3.5540e-02  2.5144e-02  7.5157e-01  2.1347e-02  8.0238e-03  7.1441e-03  0:01:29 1961
    40  1.7933e-02  3.6174e-02  2.6103e-02  8.2017e-01  1.7812e-02  7.7517e-03  6.8660e-03  0:01:11 1960
    41  1.4701e-02  3.6957e-02  2.7048e-02  8.8045e-01  1.4583e-02  7.4912e-03  6.5990e-03  0:00:57 1959
    42  1.1919e-02  3.7829e-02  2.7964e-02  9.3232e-01  1.1808e-02  7.2392e-03  6.3420e-03  0:00:46 1958
    43  9.7700e-03  3.8729e-02  2.8802e-02  9.7657e-01  9.6688e-03  7.0021e-03  6.0910e-03  0:00:36 1957
    44  8.4210e-03  3.9573e-02  2.9515e-02  1.0083e+00  8.3380e-03  6.7806e-03  5.8688e-03  0:07:00 1956

  iter  continuity  x-velocity  y-velocity  z-velocity      energy           k       omega     time/iter
    45  7.9789e-03  4.0284e-02  3.0076e-02  1.0213e+00  7.9211e-03  6.5744e-03  5.6596e-03  0:05:36 1955
    46  8.3462e-03  4.0846e-02  3.0468e-02  1.0152e+00  8.3138e-03  6.3720e-03  5.4507e-03  0:04:29 1954
    47  9.2078e-03  4.1227e-02  3.0678e-02  9.9137e-01  9.1946e-03  6.1813e-03  5.2389e-03  0:03:35 1953
    48  1.0280e-02  4.1432e-02  3.0700e-02  9.5801e-01  1.0279e-02  5.9946e-03  5.0347e-03  0:02:52 1952
    49  1.1379e-02  4.1457e-02  3.0546e-02  9.1217e-01  1.1386e-02  5.8112e-03  4.8299e-03  0:02:17 1951
    50  1.2413e-02  4.1345e-02  3.0216e-02  8.5524e-01  1.2424e-02  5.6420e-03  4.6325e-03  0:01:50 1950
    51  1.3335e-02  4.1106e-02  2.9726e-02  7.9045e-01  1.3348e-02  5.4851e-03  4.4467e-03  0:01:28 1949
    52  1.4122e-02  4.0655e-02  2.9121e-02  7.2267e-01  1.4137e-02  5.3350e-03  4.2727e-03  0:01:10 1948
    53  1.4769e-02  4.0103e-02  2.8400e-02  6.5518e-01  1.4785e-02  5.1956e-03  4.1114e-03  0:00:56 1947
    54  1.5279e-02  3.9461e-02  2.7589e-02  5.8931e-01  1.5294e-02  5.0724e-03  3.9620e-03  0:00:45 1946
    55  1.5655e-02  3.8728e-02  2.6711e-02  5.3386e-01  1.5671e-02  4.9868e-03  3.8252e-03  0:00:36 1945

  iter  continuity  x-velocity  y-velocity  z-velocity      energy           k       omega     time/iter
    56  1.5909e-02  3.7907e-02  2.5781e-02  4.9328e-01  1.5924e-02  4.9174e-03  3.7054e-03  0:06:58 1944
    57  1.6049e-02  3.7007e-02  2.4802e-02  4.7172e-01  1.6064e-02  4.8453e-03  3.5867e-03  0:05:34 1943
    58  1.6082e-02  3.6008e-02  2.3783e-02  4.7187e-01  1.6096e-02  4.7737e-03  3.4716e-03  0:04:27 1942
    59  1.6016e-02  3.4973e-02  2.2732e-02  4.9011e-01  1.6030e-02  4.7106e-03  3.3656e-03  0:03:33 1941
    60  1.5853e-02  3.3839e-02  2.1666e-02  5.2233e-01  1.5865e-02  4.6499e-03  3.2717e-03  0:02:51 1940
    61  1.5600e-02  3.2628e-02  2.0584e-02  5.6193e-01  1.5611e-02  4.5859e-03  3.1854e-03  0:02:16 1939
    62  1.5263e-02  3.1392e-02  1.9475e-02  6.0228e-01  1.5274e-02  4.5210e-03  3.1058e-03  0:01:49 1938
    63  1.4846e-02  3.0117e-02  1.8349e-02  6.3937e-01  1.4855e-02  4.4597e-03  3.0260e-03  0:01:27 1937
    64  1.4354e-02  2.8810e-02  1.7220e-02  6.7208e-01  1.4361e-02  4.3999e-03  2.9562e-03  0:01:10 1936
    65  1.3790e-02  2.7464e-02  1.6103e-02  6.9339e-01  1.3797e-02  4.3425e-03  2.8892e-03  0:00:56 1935
    66  1.3158e-02  2.6073e-02  1.4997e-02  7.0726e-01  1.3163e-02  4.2868e-03  2.8342e-03  0:00:45 1934

  iter  continuity  x-velocity  y-velocity  z-velocity      energy           k       omega     time/iter
    67  1.2458e-02  2.4662e-02  1.3906e-02  7.1558e-01  1.2461e-02  4.2286e-03  2.7751e-03  0:00:36 1933
    68  1.1694e-02  2.3258e-02  1.2833e-02  7.1657e-01  1.1697e-02  4.1691e-03  2.7101e-03  0:06:55 1932
    69  1.0872e-02  2.1838e-02  1.1801e-02  7.0861e-01  1.0874e-02  4.1075e-03  2.6536e-03  0:05:32 1931
    70  1.0014e-02  2.0499e-02  1.0805e-02  6.9277e-01  1.0014e-02  4.0436e-03  2.5900e-03  0:04:25 1930
    71  9.1310e-03  1.9261e-02  9.8383e-03  6.6979e-01  9.1289e-03  3.9861e-03  2.5391e-03  0:03:32 1929
    72  8.2450e-03  1.8179e-02  8.9047e-03  6.4111e-01  8.2412e-03  3.9291e-03  2.4834e-03  0:02:50 1928
    73  7.3998e-03  1.7321e-02  8.0268e-03  6.0841e-01  7.3939e-03  3.8741e-03  2.4215e-03  0:02:16 1927
    74  6.6482e-03  1.6677e-02  7.2307e-03  5.7609e-01  6.6398e-03  3.8178e-03  2.3666e-03  0:01:48 1926
    75  6.0774e-03  1.6257e-02  6.5159e-03  5.4891e-01  6.0663e-03  3.7582e-03  2.3223e-03  0:01:27 1925
    76  5.7927e-03  1.6031e-02  5.9138e-03  5.2885e-01  5.7786e-03  3.7065e-03  2.2887e-03  0:01:09 1924
    77  5.8815e-03  1.6069e-02  5.4092e-03  5.1898e-01  5.8648e-03  3.6601e-03  2.2582e-03  0:00:55 1923

  iter  continuity  x-velocity  y-velocity  z-velocity      energy           k       omega     time/iter
    78  6.3615e-03  1.6341e-02  5.0085e-03  5.2242e-01  6.3426e-03  3.6174e-03  2.2382e-03  0:00:44 1922
    79  7.1758e-03  1.6805e-02  4.7278e-03  5.3694e-01  7.1554e-03  3.5824e-03  2.2116e-03  0:07:00 1921
    80  8.2361e-03  1.7398e-02  4.5725e-03  5.6197e-01  8.2142e-03  3.5588e-03  2.1786e-03  0:05:36 1920
    81  9.4682e-03  1.8071e-02  4.5270e-03  5.9502e-01  9.4446e-03  3.5405e-03  2.1513e-03  0:04:28 1919
    82  1.0803e-02  1.8769e-02  4.5691e-03  6.3574e-01  1.0777e-02  3.5379e-03  2.1250e-03  0:03:35 1918
    83  1.2187e-02  1.9447e-02  4.6691e-03  6.7453e-01  1.2159e-02  3.5532e-03  2.1035e-03  0:02:52 1917
    84  1.3582e-02  2.0069e-02  4.8141e-03  7.0743e-01  1.3551e-02  3.5676e-03  2.0839e-03  0:02:17 1916
    85  1.4957e-02  2.0602e-02  4.9800e-03  7.3243e-01  1.4923e-02  3.5843e-03  2.0638e-03  0:01:50 1915
    86  1.6278e-02  2.1015e-02  5.1573e-03  7.4862e-01  1.6241e-02  3.6004e-03  2.0393e-03  0:01:28 1914
    87  1.7513e-02  2.1291e-02  5.3290e-03  7.5344e-01  1.7473e-02  3.6226e-03  2.0106e-03  0:01:10 1913
    88  1.8644e-02  2.1421e-02  5.4894e-03  7.4771e-01  1.8600e-02  3.6522e-03  1.9764e-03  0:00:56 1912

  iter  continuity  x-velocity  y-velocity  z-velocity      energy           k       omega     time/iter
    89  1.9644e-02  2.1397e-02  5.6370e-03  7.3018e-01  1.9595e-02  3.6792e-03  1.9403e-03  0:00:45 1911
    90  2.0475e-02  2.1211e-02  5.7696e-03  7.0113e-01  2.0421e-02  3.7080e-03  1.9067e-03  0:00:36 1910
    91  2.1119e-02  2.0871e-02  5.8832e-03  6.6112e-01  2.1061e-02  3.7381e-03  1.8732e-03  0:06:50 1909
    92  2.1568e-02  2.0388e-02  5.9843e-03  6.1211e-01  2.1506e-02  3.7708e-03  1.8469e-03  0:05:28 1908
    93  2.1817e-02  1.9774e-02  6.0820e-03  5.5568e-01  2.1750e-02  3.7994e-03  1.8217e-03  0:04:22 1907
    94  2.1879e-02  1.9034e-02  6.1064e-03  4.9531e-01  2.1808e-02  3.8270e-03  1.7967e-03  0:03:30 1906
    95  2.1737e-02  1.8214e-02  6.1940e-03  4.3110e-01  2.1661e-02  3.8511e-03  1.7725e-03  0:02:48 1905
    96  2.1406e-02  1.7349e-02  6.3534e-03  3.7509e-01  2.1325e-02  3.8790e-03  1.7472e-03  0:02:14 1904
    97  2.0903e-02  1.6426e-02  6.5357e-03  3.3323e-01  2.0818e-02  3.9034e-03  1.7258e-03  0:01:47 1903
    98  2.0243e-02  1.5539e-02  6.9032e-03  3.1936e-01  2.0155e-02  3.9184e-03  1.7022e-03  0:01:26 1902
    99  1.9470e-02  1.4781e-02  7.3854e-03  3.3656e-01  1.9378e-02  3.9343e-03  1.6878e-03  0:01:09 1901

  iter  continuity  x-velocity  y-velocity  z-velocity      energy           k       omega     time/iter
   100  1.8563e-02  1.4120e-02  7.9719e-03  3.7869e-01  1.8470e-02  3.9446e-03  1.6722e-03  0:00:55 1900
   101  1.7528e-02  1.3658e-02  8.5959e-03  4.3745e-01  1.7431e-02  3.9446e-03  1.6559e-03  0:00:44 1899
   102  1.6369e-02  1.3441e-02  9.2455e-03  5.0387e-01  1.6271e-02  3.9346e-03  1.6447e-03  0:00:35 1898
   103  1.5126e-02  1.3497e-02  9.9231e-03  5.7227e-01  1.5026e-02  3.9218e-03  1.6375e-03  0:06:47 1897
   104  1.3811e-02  1.3608e-02  1.0483e-02  6.3902e-01  1.3710e-02  3.9006e-03  1.6343e-03  0:05:26 1896
   105  1.2462e-02  1.4177e-02  1.1118e-02  7.0005e-01  1.2361e-02  3.8779e-03  1.6247e-03  0:04:20 1895
   106  1.1111e-02  1.5022e-02  1.1789e-02  7.5411e-01  1.1011e-02  3.8514e-03  1.5967e-03  0:03:28 1894
   107  9.7797e-03  1.6030e-02  1.2445e-02  7.9819e-01  9.6804e-03  3.8254e-03  1.5762e-03  0:02:47 1893
   108  8.4975e-03  1.7145e-02  1.3052e-02  8.3161e-01  8.4002e-03  3.7950e-03  1.5588e-03  0:02:13 1892
   109  7.2898e-03  1.8295e-02  1.3590e-02  8.5441e-01  7.1955e-03  3.7607e-03  1.5299e-03  0:01:46 1891
   110  6.1863e-03  1.9453e-02  1.4034e-02  8.7180e-01  6.0968e-03  3.7221e-03  1.5063e-03  0:01:25 1890

  iter  continuity  x-velocity  y-velocity  z-velocity      energy           k       omega     time/iter
   111  5.2484e-03  2.0601e-02  1.4382e-02  8.7274e-01  5.1668e-03  3.6845e-03  1.4897e-03  0:01:08 1889
   112  4.5461e-03  2.1700e-02  1.4630e-02  8.6565e-01  4.4769e-03  3.6477e-03  1.4618e-03  0:00:54 1888
   113  4.1673e-03  2.2713e-02  1.4783e-02  8.4542e-01  4.1163e-03  3.6071e-03  1.4377e-03  0:00:44 1887
   114  4.1515e-03  2.3616e-02  1.4839e-02  8.1367e-01  4.1214e-03  3.5573e-03  1.4156e-03  0:06:52 1886
   115  4.4594e-03  2.4403e-02  1.4804e-02  7.7345e-01  4.4479e-03  3.5047e-03  1.3933e-03  0:05:29 1885
   116  4.9653e-03  2.5057e-02  1.4678e-02  7.2443e-01  4.9669e-03  3.4538e-03  1.3696e-03  0:04:23 1884
   117  5.5701e-03  2.5571e-02  1.4467e-02  6.6716e-01  5.5797e-03  3.4005e-03  1.3502e-03  0:03:31 1883
   118  6.2078e-03  2.5943e-02  1.4177e-02  6.0384e-01  6.2216e-03  3.3476e-03  1.3277e-03  0:02:48 1882
   119  6.8367e-03  2.6168e-02  1.3814e-02  5.3543e-01  6.8522e-03  3.2937e-03  1.3069e-03  0:02:15 1881
   120  7.4316e-03  2.6232e-02  1.3384e-02  4.6463e-01  7.4471e-03  3.2408e-03  1.2906e-03  0:01:48 1880
   121  7.9748e-03  2.6165e-02  1.2888e-02  3.9274e-01  7.9893e-03  3.1885e-03  1.2770e-03  0:01:26 1879

  iter  continuity  x-velocity  y-velocity  z-velocity      energy           k       omega     time/iter
   122  8.4555e-03  2.5969e-02  1.2337e-02  3.2124e-01  8.4682e-03  3.1281e-03  1.2617e-03  0:01:09 1878
   123  8.8667e-03  2.5647e-02  1.1742e-02  2.5487e-01  8.8771e-03  3.0667e-03  1.2430e-03  0:00:55 1877
   124  9.2025e-03  2.5199e-02  1.1114e-02  1.9766e-01  9.2105e-03  3.0055e-03  1.2247e-03  0:00:44 1876
   125  9.4594e-03  2.4627e-02  1.0463e-02  1.6435e-01  9.4646e-03  2.9461e-03  1.2059e-03  0:00:35 1875
   126  9.6305e-03  2.3910e-02  9.8034e-03  1.6903e-01  9.6331e-03  2.8815e-03  1.1891e-03  0:06:43 1874
   127  9.7246e-03  2.3130e-02  9.1641e-03  2.0683e-01  9.7245e-03  2.8120e-03  1.1722e-03  0:05:22 1873
   128  9.7373e-03  2.2268e-02  8.5130e-03  2.6035e-01  9.7344e-03  2.7361e-03  1.1491e-03  0:04:18 1872
   129  9.6654e-03  2.1299e-02  7.8800e-03  3.1908e-01  9.6599e-03  2.6632e-03  1.1315e-03  0:03:26 1871
   130  9.5167e-03  2.0310e-02  7.2641e-03  3.7783e-01  9.5088e-03  2.5942e-03  1.1141e-03  0:02:45 1870
   131  9.2877e-03  1.9293e-02  6.6719e-03  4.3393e-01  9.2774e-03  2.5229e-03  1.0967e-03  0:02:12 1869
   132  8.9811e-03  1.8256e-02  6.1203e-03  4.8544e-01  8.9686e-03  2.4469e-03  1.0895e-03  0:01:45 1868

  iter  continuity  x-velocity  y-velocity  z-velocity      energy           k       omega     time/iter
   133  8.6004e-03  1.7293e-02  5.5684e-03  5.3099e-01  8.5860e-03  2.3657e-03  1.0902e-03  0:01:24 1867
   134  8.1582e-03  1.6645e-02  4.9866e-03  5.7117e-01  8.1423e-03  2.2862e-03  1.0599e-03  0:01:07 1866
   135  7.6650e-03  1.5759e-02  4.7451e-03  6.0615e-01  7.6476e-03  2.2158e-03  1.0463e-03  0:00:54 1865
   136  7.1200e-03  1.4928e-02  4.6041e-03  6.3503e-01  7.1013e-03  2.1493e-03  1.0355e-03  0:00:43 1864
   137  6.5322e-03  1.4074e-02  4.5507e-03  6.5856e-01  6.5122e-03  2.0855e-03  1.0219e-03  0:00:34 1863
   138  5.9136e-03  1.3273e-02  4.5511e-03  6.7726e-01  5.8924e-03  2.0335e-03  1.0259e-03  0:06:40 1862
   139  5.2777e-03  1.2560e-02  4.6019e-03  6.8991e-01  5.2555e-03  1.9829e-03  1.0232e-03  0:05:20 1861
   140  4.6455e-03  1.1957e-02  4.6974e-03  6.9521e-01  4.6228e-03  1.9371e-03  1.0225e-03  0:04:16 1860
   141  4.0343e-03  1.1476e-02  4.8267e-03  6.9690e-01  4.0114e-03  1.8991e-03  1.0250e-03  0:03:24 1859
   142  3.4665e-03  1.1119e-02  4.9752e-03  6.9179e-01  3.4439e-03  1.8670e-03  1.0255e-03  0:02:43 1858
   143  2.9827e-03  1.0886e-02  5.1273e-03  6.8125e-01  2.9614e-03  1.8430e-03  1.0102e-03  0:02:11 1857

  iter  continuity  x-velocity  y-velocity  z-velocity      energy           k       omega     time/iter
   144  2.6344e-03  1.0757e-02  5.2677e-03  6.6764e-01  2.6158e-03  1.8234e-03  1.0005e-03  0:01:44 1856
   145  2.4844e-03  1.0725e-02  5.3955e-03  6.5004e-01  2.4704e-03  1.8048e-03  9.9046e-04  0:01:24 1855
   146  2.5552e-03  1.0761e-02  5.4961e-03  6.2869e-01  2.5466e-03  1.7870e-03  9.7519e-04  0:01:07 1854
   147  2.8216e-03  1.0870e-02  5.5769e-03  6.0465e-01  2.8177e-03  1.7703e-03  9.6418e-04  0:00:53 1853
   148  3.2153e-03  1.1054e-02  5.6486e-03  5.7924e-01  3.2147e-03  1.7526e-03  9.5543e-04  0:00:43 1852
   149  3.6648e-03  1.1276e-02  5.6683e-03  5.5201e-01  3.6661e-03  1.7363e-03  9.4646e-04  0:06:44 1851
   150  4.1074e-03  1.1500e-02  5.6463e-03  5.2297e-01  4.1096e-03  1.7219e-03  9.3709e-04  0:05:23 1850
   151  4.5437e-03  1.1732e-02  5.5969e-03  4.9233e-01  4.5463e-03  1.7066e-03  9.2471e-04  0:04:19 1849
   152  4.9440e-03  1.1838e-02  5.5131e-03  4.6033e-01  4.9465e-03  1.6878e-03  9.1171e-04  0:03:27 1848
   153  5.2963e-03  1.1813e-02  5.3857e-03  4.2788e-01  5.2982e-03  1.6678e-03  9.0069e-04  0:02:45 1847
   154  5.5946e-03  1.1675e-02  5.2199e-03  3.9446e-01  5.5960e-03  1.6483e-03  8.8893e-04  0:02:12 1846

  iter  continuity  x-velocity  y-velocity  z-velocity      energy           k       omega     time/iter
   155  5.8366e-03  1.1449e-02  5.0225e-03  3.6105e-01  5.8371e-03  1.6272e-03  8.7773e-04  0:01:46 1845
   156  6.0207e-03  1.1167e-02  4.7976e-03  3.2720e-01  6.0204e-03  1.6062e-03  8.6730e-04  0:01:24 1844
   157  6.1458e-03  1.0842e-02  4.5494e-03  2.9278e-01  6.1446e-03  1.5924e-03  8.5747e-04  0:01:08 1843
   158  6.2114e-03  1.0484e-02  4.2831e-03  2.5843e-01  6.2093e-03  1.5829e-03  8.4898e-04  0:00:54 1842
   159  6.2172e-03  1.0097e-02  4.0033e-03  2.2610e-01  6.2142e-03  1.5788e-03  8.4237e-04  0:00:43 1841
   160  6.1642e-03  9.6889e-03  3.7150e-03  1.9649e-01  6.1603e-03  1.5819e-03  8.2835e-04  0:00:35 1840
   161  6.0546e-03  9.2669e-03  3.4240e-03  1.6959e-01  6.0499e-03  1.5941e-03  8.2209e-04  0:06:35 1839
   162  5.8918e-03  8.8404e-03  3.1364e-03  1.4784e-01  5.8864e-03  1.6118e-03  8.1747e-04  0:05:16 1838
   163  5.6804e-03  8.4199e-03  2.8593e-03  1.3479e-01  5.6742e-03  1.6259e-03  8.1242e-04  0:04:13 1837
   164  5.4254e-03  8.0160e-03  2.6006e-03  1.3308e-01  5.4187e-03  1.6428e-03  8.1148e-04  0:03:22 1836
   165  5.1327e-03  7.6385e-03  2.3696e-03  1.4184e-01  5.1256e-03  1.6638e-03  8.1008e-04  0:02:42 1835

  iter  continuity  x-velocity  y-velocity  z-velocity      energy           k       omega     time/iter
   166  4.8088e-03  7.3003e-03  2.1741e-03  1.5881e-01  4.8014e-03  1.6872e-03  8.0182e-04  0:02:09 1834
   167  4.4609e-03  7.0108e-03  2.0220e-03  1.8100e-01  4.4533e-03  1.7133e-03  7.9484e-04  0:01:43 1833
   168  4.0972e-03  6.7784e-03  1.9192e-03  2.0596e-01  4.0895e-03  1.7429e-03  7.9495e-04  0:01:23 1832
   169  3.7243e-03  6.6089e-03  1.8663e-03  2.3164e-01  3.7168e-03  1.7733e-03  7.9461e-04  0:01:06 1831
   170  3.3564e-03  6.5030e-03  1.8610e-03  2.5613e-01  3.3492e-03  1.8023e-03  8.0057e-04  0:00:53 1830
   171  3.0088e-03  6.4697e-03  1.9078e-03  2.7889e-01  3.0019e-03  1.8324e-03  8.0597e-04  0:00:42 1829
   172  2.6968e-03  6.5020e-03  1.9754e-03  2.9950e-01  2.6906e-03  1.8666e-03  8.0486e-04  0:06:39 1828
   173  2.4385e-03  6.5835e-03  2.0555e-03  3.1757e-01  2.4331e-03  1.9009e-03  8.0716e-04  0:05:19 1827
   174  2.2519e-03  6.6989e-03  2.1423e-03  3.3303e-01  2.2474e-03  1.9347e-03  8.1118e-04  0:04:15 1826
   175  2.1479e-03  6.8221e-03  2.2205e-03  3.4593e-01  2.1445e-03  1.9682e-03  8.1135e-04  0:03:24 1825
   176  2.1379e-03  6.9709e-03  2.2943e-03  3.5596e-01  2.1355e-03  1.9986e-03  8.0830e-04  0:02:43 1824

  iter  continuity  x-velocity  y-velocity  z-velocity      energy           k       omega     time/iter
   177  2.2091e-03  7.1149e-03  2.3562e-03  3.6295e-01  2.2075e-03  2.0300e-03  8.0634e-04  0:02:11 1823
   178  2.3385e-03  7.1715e-03  2.3913e-03  3.6706e-01  2.3375e-03  2.0579e-03  8.0463e-04  0:01:44 1822
   179  2.5124e-03  7.2659e-03  2.4157e-03  3.6834e-01  2.5117e-03  2.0817e-03  8.0224e-04  0:01:23 1821
   180  2.7009e-03  7.3444e-03  2.4240e-03  3.6690e-01  2.7004e-03  2.1022e-03  8.0258e-04  0:01:07 1820
   181  2.8898e-03  7.4088e-03  2.3981e-03  3.6269e-01  2.8892e-03  2.1196e-03  8.0118e-04  0:00:53 1819
   182  3.0687e-03  7.4184e-03  2.3679e-03  3.5630e-01  3.0681e-03  2.1343e-03  7.9808e-04  0:00:43 1818
   183  3.2319e-03  7.4021e-03  2.3244e-03  3.4759e-01  3.2311e-03  2.1475e-03  7.9611e-04  0:00:34 1817
   184  3.3730e-03  7.3609e-03  2.2662e-03  3.3724e-01  3.3720e-03  2.1575e-03  7.9163e-04  0:06:30 1816
   185  3.4878e-03  7.2859e-03  2.1999e-03  3.2471e-01  3.4867e-03  2.1600e-03  7.8375e-04  0:05:12 1815
   186  3.5652e-03  7.1169e-03  2.1337e-03  3.1016e-01  3.5640e-03  2.1555e-03  7.7558e-04  0:04:10 1814
   187  3.6190e-03  6.9841e-03  2.0551e-03  2.9346e-01  3.6177e-03  2.1479e-03  7.6627e-04  0:03:20 1813

  iter  continuity  x-velocity  y-velocity  z-velocity      energy           k       omega     time/iter
   188  3.6480e-03  6.8545e-03  1.9593e-03  2.7367e-01  3.6466e-03  2.1350e-03  7.5595e-04  0:02:40 1812
   189  3.6495e-03  6.7081e-03  1.8636e-03  2.5736e-01  3.6479e-03  2.1199e-03  7.4878e-04  0:02:08 1811
   190  3.6229e-03  6.5459e-03  1.7700e-03  2.4016e-01  3.6212e-03  2.1009e-03  7.3896e-04  0:01:42 1810
   191  3.5692e-03  6.3723e-03  1.6797e-03  2.2288e-01  3.5674e-03  2.0750e-03  7.2938e-04  0:01:22 1809
   192  3.4901e-03  6.1899e-03  1.5929e-03  2.0540e-01  3.4882e-03  2.0438e-03  7.2014e-04  0:01:05 1808
   193  3.3870e-03  6.0018e-03  1.5110e-03  1.8790e-01  3.3852e-03  2.0127e-03  7.1124e-04  0:00:52 1807
   194  3.2629e-03  5.8096e-03  1.4357e-03  1.7063e-01  3.2610e-03  1.9872e-03  7.0100e-04  0:00:42 1806
   195  3.1192e-03  5.6159e-03  1.3671e-03  1.5445e-01  3.1173e-03  1.9542e-03  6.9277e-04  0:06:34 1805
   196  2.9582e-03  5.4226e-03  1.3050e-03  1.3951e-01  2.9563e-03  1.9160e-03  6.8567e-04  0:05:15 1804
   197  2.7824e-03  5.2319e-03  1.2494e-03  1.2622e-01  2.7807e-03  1.8751e-03  6.7909e-04  0:04:12 1803
   198  2.5948e-03  5.0458e-03  1.2003e-03  1.1511e-01  2.5931e-03  1.8335e-03  6.7095e-04  0:03:22 1802

  iter  continuity  x-velocity  y-velocity  z-velocity      energy           k       omega     time/iter
   199  2.3988e-03  4.8661e-03  1.1592e-03  1.0741e-01  2.3973e-03  1.7912e-03  6.6283e-04  0:02:41 1801
   200  2.1987e-03  4.6983e-03  1.1352e-03  1.0408e-01  2.1972e-03  1.7473e-03  6.5293e-04  0:02:09 1800
   201  1.9979e-03  4.5484e-03  1.1071e-03  1.0483e-01  1.9964e-03  1.6992e-03  6.4242e-04  0:01:43 1799
   202  1.7999e-03  4.4119e-03  1.0797e-03  1.0892e-01  1.7985e-03  1.6486e-03  6.3428e-04  0:01:22 1798
   203  1.6089e-03  4.2873e-03  1.0557e-03  1.1539e-01  1.6076e-03  1.5974e-03  6.2595e-04  0:01:06 1797
   204  1.4301e-03  4.1727e-03  1.0363e-03  1.2332e-01  1.4287e-03  1.5460e-03  6.1751e-04  0:00:53 1796
   205  1.2694e-03  4.0691e-03  1.0201e-03  1.3205e-01  1.2679e-03  1.4962e-03  6.0846e-04  0:00:42 1795
   206  1.1340e-03  3.9772e-03  1.0044e-03  1.4101e-01  1.1324e-03  1.4484e-03  6.0210e-04  0:00:34 1794
   207  1.0320e-03  3.8962e-03  9.8905e-04  1.4950e-01  1.0303e-03  1.4022e-03  5.9309e-04  0:06:26 1793
   208  9.6996e-04  3.8244e-03  9.7395e-04  1.5700e-01  9.6801e-04  1.3588e-03  5.8741e-04  0:05:08 1792
   209  9.5081e-04  3.7577e-03  9.5930e-04  1.6341e-01  9.4868e-04  1.3210e-03  5.8532e-04  0:04:06 1791

  iter  continuity  x-velocity  y-velocity  z-velocity      energy           k       omega     time/iter
   210  9.7152e-04  3.6936e-03  9.5073e-04  1.6861e-01  9.6927e-04  1.2884e-03  5.7673e-04  0:03:17 1790
   211  1.0181e-03  3.6615e-03  9.4184e-04  1.7254e-01  1.0158e-03  1.2604e-03  5.5743e-04  0:02:38 1789
   212  1.0910e-03  3.6280e-03  9.3028e-04  1.7513e-01  1.0886e-03  1.2391e-03  5.3884e-04  0:02:06 1788
   213  1.1748e-03  3.5803e-03  9.1456e-04  1.7617e-01  1.1724e-03  1.2229e-03  5.2187e-04  0:01:41 1787
   214  1.2618e-03  3.5237e-03  8.9579e-04  1.7557e-01  1.2594e-03  1.2085e-03  5.0471e-04  0:01:21 1786
   215  1.3470e-03  3.4629e-03  8.7468e-04  1.7335e-01  1.3446e-03  1.1951e-03  4.9294e-04  0:01:04 1785
   216  1.4269e-03  3.4000e-03  8.5208e-04  1.6938e-01  1.4245e-03  1.1830e-03  4.8131e-04  0:00:51 1784
   217  1.4992e-03  3.3363e-03  8.2829e-04  1.6388e-01  1.4968e-03  1.1738e-03  4.7004e-04  0:00:41 1783
   218  1.5621e-03  3.2726e-03  8.0371e-04  1.5753e-01  1.5597e-03  1.1662e-03  4.5975e-04  0:06:29 1782
   219  1.6146e-03  3.2100e-03  7.7878e-04  1.5011e-01  1.6122e-03  1.1571e-03  4.4900e-04  0:05:11 1781
   220  1.6562e-03  3.1493e-03  7.5390e-04  1.4164e-01  1.6538e-03  1.1518e-03  4.3854e-04  0:04:09 1780

  iter  continuity  x-velocity  y-velocity  z-velocity      energy           k       omega     time/iter
   221  1.6866e-03  3.0910e-03  7.2945e-04  1.3231e-01  1.6842e-03  1.1480e-03  4.2835e-04  0:03:19 1779
   222  1.7057e-03  3.0352e-03  7.0585e-04  1.2203e-01  1.7034e-03  1.1448e-03  4.1893e-04  0:02:39 1778
   223  1.7139e-03  2.9821e-03  6.8349e-04  1.1130e-01  1.7116e-03  1.1402e-03  4.0734e-04  0:02:07 1777
   224  1.7112e-03  2.9320e-03  6.6271e-04  1.0057e-01  1.7090e-03  1.1341e-03  3.9604e-04  0:01:42 1776
   225  1.6983e-03  2.8846e-03  6.4369e-04  9.0076e-02  1.6960e-03  1.1236e-03  3.8564e-04  0:01:21 1775
   226  1.6756e-03  2.8398e-03  6.2665e-04  8.0417e-02  1.6734e-03  1.1135e-03  3.7508e-04  0:01:05 1774
   227  1.6439e-03  2.7980e-03  6.1168e-04  7.2488e-02  1.6416e-03  1.1043e-03  3.6638e-04  0:06:47 1773
   228  1.6042e-03  2.7591e-03  5.9881e-04  6.6920e-02  1.6021e-03  1.0938e-03  3.5804e-04  0:05:25 1772
   229  1.5568e-03  2.7234e-03  5.8800e-04  6.4897e-02  1.5547e-03  1.0846e-03  3.5102e-04  0:04:20 1771
   230  1.5025e-03  2.6911e-03  5.7909e-04  6.6729e-02  1.5003e-03  1.0737e-03  3.4412e-04  0:03:28 1770
   231  1.4422e-03  2.6622e-03  5.7193e-04  7.2073e-02  1.4401e-03  1.0613e-03  3.4007e-04  0:02:46 1769

  iter  continuity  x-velocity  y-velocity  z-velocity      energy           k       omega     time/iter
   232  1.3771e-03  2.6372e-03  5.6635e-04  7.9930e-02  1.3751e-03  1.0495e-03  3.3809e-04  0:02:13 1768
   233  1.3080e-03  2.6161e-03  5.6221e-04  8.9212e-02  1.3060e-03  1.0360e-03  3.3491e-04  0:01:46 1767
   234  1.2356e-03  2.5832e-03  5.5298e-04  9.9239e-02  1.2337e-03  1.0208e-03  3.3452e-04  0:01:25 1766
   235  1.1627e-03  2.5632e-03  5.5102e-04  1.0934e-01  1.1608e-03  1.0044e-03  3.3432e-04  0:01:08 1765
   236  1.0885e-03  2.5510e-03  5.5026e-04  1.1889e-01  1.0867e-03  9.8687e-04  3.3342e-04  0:00:54 1764
   237  1.0140e-03  2.5454e-03  5.5020e-04  1.2787e-01  1.0122e-03  9.7098e-04  3.3358e-04  0:00:43 1763
   238  9.4053e-04  2.5456e-03  5.5019e-04  1.3622e-01  9.3891e-04  9.5489e-04  3.3401e-04  0:06:27 1762
   239  8.6967e-04  2.5503e-03  5.5020e-04  1.4376e-01  8.6817e-04  9.3769e-04  3.3399e-04  0:05:10 1761
   240  8.0275e-04  2.5585e-03  5.5044e-04  1.5045e-01  8.0139e-04  9.2134e-04  3.3533e-04  0:04:07 1760
   241  7.4121e-04  2.5693e-03  5.5086e-04  1.5605e-01  7.4002e-04  9.0556e-04  3.3748e-04  0:03:18 1759
   242  6.8659e-04  2.5826e-03  5.5150e-04  1.6045e-01  6.8560e-04  8.9016e-04  3.4019e-04  0:02:38 1758

  iter  continuity  x-velocity  y-velocity  z-velocity      energy           k       omega     time/iter
   243  6.4023e-04  2.5991e-03  5.4790e-04  1.6353e-01  6.3946e-04  8.7523e-04  3.3891e-04  0:02:06 1757
   244  6.0289e-04  2.6109e-03  5.4701e-04  1.6540e-01  6.0236e-04  8.6113e-04  3.3836e-04  0:01:41 1756
   245  5.7667e-04  2.6262e-03  5.4768e-04  1.6601e-01  5.7639e-04  8.4928e-04  3.3777e-04  0:01:21 1755
   246  5.6200e-04  2.6426e-03  5.4752e-04  1.6536e-01  5.6198e-04  8.4000e-04  3.3708e-04  0:01:05 1754
   247  5.5839e-04  2.6584e-03  5.4664e-04  1.6341e-01  5.5860e-04  8.3167e-04  3.3488e-04  0:00:52 1753
   248  5.6456e-04  2.6729e-03  5.4497e-04  1.6022e-01  5.6496e-04  8.2339e-04  3.3101e-04  0:00:41 1752
   249  5.7876e-04  2.6855e-03  5.4228e-04  1.5591e-01  5.7932e-04  8.1444e-04  3.2450e-04  0:00:33 1751
   250  5.9907e-04  2.6968e-03  5.3777e-04  1.5033e-01  5.9973e-04  8.0694e-04  3.1685e-04  0:06:16 1750
   251  6.2322e-04  2.7036e-03  5.3326e-04  1.4314e-01  6.2393e-04  7.9969e-04  3.0796e-04  0:05:01 1749
   252  6.5017e-04  2.7069e-03  5.2776e-04  1.3541e-01  6.5090e-04  7.9069e-04  2.9917e-04  0:04:01 1748
   253  6.7829e-04  2.7065e-03  5.2093e-04  1.2673e-01  6.7900e-04  7.7980e-04  2.9196e-04  0:03:12 1747

  iter  continuity  x-velocity  y-velocity  z-velocity      energy           k       omega     time/iter
   254  7.0638e-04  2.7023e-03  5.1272e-04  1.1736e-01  7.0705e-04  7.6776e-04  2.8689e-04  0:02:34 1746
   255  7.3356e-04  2.6940e-03  5.0318e-04  1.0756e-01  7.3414e-04  7.5581e-04  2.8167e-04  0:02:03 1745
   256  7.5918e-04  2.6814e-03  4.9232e-04  9.7486e-02  7.5967e-04  7.4502e-04  2.7787e-04  0:01:38 1744
   257  7.8279e-04  2.6643e-03  4.8024e-04  8.7240e-02  7.8317e-04  7.3483e-04  2.7361e-04  0:01:19 1743
   258  8.0402e-04  2.6429e-03  4.6689e-04  7.6981e-02  8.0427e-04  7.2432e-04  2.7067e-04  0:01:03 1742
   259  8.2273e-04  2.6172e-03  4.5247e-04  6.6969e-02  8.2284e-04  7.1342e-04  2.6680e-04  0:00:50 1741
   260  8.3875e-04  2.5872e-03  4.3713e-04  5.7595e-02  8.3870e-04  7.0251e-04  2.6290e-04  0:00:40 1740
   261  8.5171e-04  2.5530e-03  4.2107e-04  4.9202e-02  8.5150e-04  6.9150e-04  2.5790e-04  0:00:32 1739
   262  8.6208e-04  2.5151e-03  4.0461e-04  4.2342e-02  8.6170e-04  6.8070e-04  2.5317e-04  0:06:13 1738
   263  8.6976e-04  2.4737e-03  3.8804e-04  3.7510e-02  8.6919e-04  6.7054e-04  2.4767e-04  0:04:58 1737
   264  8.7469e-04  2.4292e-03  3.7181e-04  3.5575e-02  8.7394e-04  6.6013e-04  2.4270e-04  0:03:59 1736

  iter  continuity  x-velocity  y-velocity  z-velocity      energy           k       omega     time/iter
   265  8.7688e-04  2.3819e-03  3.5639e-04  3.6591e-02  8.7595e-04  6.4930e-04  2.3801e-04  0:03:11 1735
   266  8.7639e-04  2.3322e-03  3.4235e-04  4.0013e-02  8.7527e-04  6.3962e-04  2.3451e-04  0:02:33 1734
   267  8.7334e-04  2.2806e-03  3.3028e-04  4.4901e-02  8.7205e-04  6.3055e-04  2.3079e-04  0:02:02 1733
   268  8.6789e-04  2.2280e-03  3.2064e-04  5.0526e-02  8.6641e-04  6.2161e-04  2.2843e-04  0:01:38 1732
   269  8.6016e-04  2.1750e-03  3.1401e-04  5.6342e-02  8.5852e-04  6.1261e-04  2.2609e-04  0:01:18 1731
   270  8.5037e-04  2.1222e-03  3.1111e-04  6.2031e-02  8.4856e-04  6.0390e-04  2.2448e-04  0:01:02 1730
   271  8.3870e-04  2.0699e-03  3.1219e-04  6.7425e-02  8.3673e-04  5.9604e-04  2.2331e-04  0:00:50 1729
   272  8.2532e-04  2.0178e-03  3.1924e-04  7.2282e-02  8.2321e-04  5.8883e-04  2.2238e-04  0:00:40 1728
   273  8.1049e-04  1.9682e-03  3.2893e-04  7.6497e-02  8.0824e-04  5.8233e-04  2.2319e-04  0:06:17 1727
   274  7.9444e-04  1.9218e-03  3.4095e-04  8.0063e-02  7.9208e-04  5.7676e-04  2.2440e-04  0:05:02 1726
   275  7.7738e-04  1.8790e-03  3.5518e-04  8.2881e-02  7.7492e-04  5.7240e-04  2.2427e-04  0:04:01 1725

  iter  continuity  x-velocity  y-velocity  z-velocity      energy           k       omega     time/iter
   276  7.5957e-04  1.8403e-03  3.7133e-04  8.4900e-02  7.5704e-04  5.6906e-04  2.2331e-04  0:03:13 1724
   277  7.4125e-04  1.8061e-03  3.8891e-04  8.6209e-02  7.3866e-04  5.6652e-04  2.2250e-04  0:02:34 1723
   278  7.2254e-04  1.7762e-03  4.0728e-04  8.6770e-02  7.1991e-04  5.6501e-04  2.2111e-04  0:02:03 1722
   279  7.0371e-04  1.7509e-03  4.2603e-04  8.6571e-02  7.0108e-04  5.6428e-04  2.1911e-04  0:01:39 1721
   280  6.8487e-04  1.7309e-03  4.4484e-04  8.5687e-02  6.8224e-04  5.6415e-04  2.1615e-04  0:01:19 1720
   281  6.6635e-04  1.7183e-03  4.6100e-04  8.4222e-02  6.6377e-04  5.6481e-04  2.1420e-04  0:01:03 1719
   282  6.4915e-04  1.7136e-03  4.7106e-04  8.2281e-02  6.4664e-04  5.6579e-04  2.1213e-04  0:00:50 1718
   283  6.3248e-04  1.7087e-03  4.8912e-04  7.9796e-02  6.3006e-04  5.6714e-04  2.1066e-04  0:00:40 1717
   284  6.1641e-04  1.7068e-03  5.0578e-04  7.6806e-02  6.1411e-04  5.6911e-04  2.0940e-04  0:00:32 1716
   285  6.0133e-04  1.7083e-03  5.1949e-04  7.3288e-02  5.9917e-04  5.7138e-04  2.0826e-04  0:06:09 1715
   286  5.8526e-04  1.7136e-03  5.3209e-04  6.9317e-02  5.8327e-04  5.7401e-04  2.0771e-04  0:04:55 1714

  iter  continuity  x-velocity  y-velocity  z-velocity      energy           k       omega     time/iter
   287  5.7180e-04  1.7311e-03  5.4371e-04  6.4876e-02  5.7000e-04  5.7669e-04  2.0812e-04  0:03:56 1713
   288  5.6070e-04  1.7475e-03  5.5048e-04  6.0087e-02  5.5910e-04  5.7927e-04  2.0871e-04  0:03:08 1712
   289  5.5089e-04  1.7603e-03  5.5465e-04  5.5043e-02  5.4949e-04  5.8177e-04  2.0838e-04  0:02:31 1711
   290  5.4202e-04  1.7704e-03  5.5660e-04  4.9816e-02  5.4082e-04  5.8468e-04  2.0767e-04  0:02:00 1710
   291  5.3423e-04  1.7792e-03  5.5633e-04  4.4432e-02  5.3323e-04  5.8781e-04  2.0745e-04  0:01:36 1709
   292  5.2738e-04  1.7869e-03  5.5369e-04  3.8974e-02  5.2657e-04  5.9089e-04  2.0723e-04  0:01:17 1708
   293  5.2132e-04  1.7936e-03  5.4874e-04  3.3693e-02  5.2069e-04  5.9356e-04  2.0630e-04  0:01:02 1707
   294  5.1586e-04  1.7988e-03  5.4150e-04  2.8671e-02  5.1540e-04  5.9684e-04  2.0531e-04  0:00:49 1706
   295  5.1080e-04  1.8025e-03  5.3207e-04  2.4380e-02  5.1049e-04  5.9908e-04  2.0290e-04  0:00:39 1705
   296  5.0595e-04  1.8045e-03  5.2059e-04  2.1038e-02  5.0576e-04  6.0061e-04  2.0059e-04  0:06:12 1704
   297  5.0109e-04  1.8048e-03  5.0723e-04  1.9305e-02  5.0101e-04  6.0199e-04  1.9891e-04  0:04:58 1703

  iter  continuity  x-velocity  y-velocity  z-velocity      energy           k       omega     time/iter
   298  4.9605e-04  1.8032e-03  4.9222e-04  1.9495e-02  4.9605e-04  6.0195e-04  1.9803e-04  0:03:58 1702
   299  4.9067e-04  1.7999e-03  4.7582e-04  2.1399e-02  4.9073e-04  6.0140e-04  1.9749e-04  0:03:10 1701
   300  4.8481e-04  1.7947e-03  4.5830e-04  2.4507e-02  4.8490e-04  5.9992e-04  1.9697e-04  0:02:32 1700
   301  4.7841e-04  1.7877e-03  4.3996e-04  2.8256e-02  4.7849e-04  5.9746e-04  1.9658e-04  0:02:02 1699
   302  4.7142e-04  1.7789e-03  4.2115e-04  3.2268e-02  4.7149e-04  5.9439e-04  1.9616e-04  0:01:37 1698
   303  4.6382e-04  1.7685e-03  4.0226e-04  3.6329e-02  4.6383e-04  5.9066e-04  1.9530e-04  0:01:18 1697
   304  4.5558e-04  1.7566e-03  3.8369e-04  4.0256e-02  4.5552e-04  5.8636e-04  1.9434e-04  0:01:02 1696
   305  4.4672e-04  1.7431e-03  3.6586e-04  4.3922e-02  4.4656e-04  5.8154e-04  1.9390e-04  0:00:50 1695
   306  4.3732e-04  1.7283e-03  3.4919e-04  4.7298e-02  4.3703e-04  5.7638e-04  1.9333e-04  0:00:40 1694
   307  4.2746e-04  1.7123e-03  3.3416e-04  5.0349e-02  4.2703e-04  5.7054e-04  1.9243e-04  0:00:32 1693
   308  4.1721e-04  1.6951e-03  3.2122e-04  5.3068e-02  4.1662e-04  5.6469e-04  1.9130e-04  0:06:04 1692

  iter  continuity  x-velocity  y-velocity  z-velocity      energy           k       omega     time/iter
   309  4.0668e-04  1.6770e-03  3.1080e-04  5.5414e-02  4.0591e-04  5.5890e-04  1.9013e-04  0:04:51 1691
   310  3.9601e-04  1.6581e-03  3.0320e-04  5.7370e-02  3.9504e-04  5.5311e-04  1.8886e-04  0:03:53 1690
   311  3.8537e-04  1.6385e-03  2.9863e-04  5.8902e-02  3.8419e-04  5.4733e-04  1.8829e-04  0:03:06 1689
   312  3.7492e-04  1.6185e-03  2.9717e-04  5.9989e-02  3.7351e-04  5.4155e-04  1.8796e-04  0:02:29 1688
   313  3.6483e-04  1.5982e-03  2.9872e-04  6.0628e-02  3.6319e-04  5.3523e-04  1.8936e-04  0:01:59 1687
   314  3.5528e-04  1.5778e-03  3.0305e-04  6.0819e-02  3.5340e-04  5.2888e-04  1.9028e-04  0:01:35 1686
   315  3.4640e-04  1.5573e-03  3.0983e-04  6.0591e-02  3.4427e-04  5.2240e-04  1.9049e-04  0:01:16 1685
   316  3.3851e-04  1.5371e-03  3.1866e-04  5.9989e-02  3.3614e-04  5.1597e-04  1.9020e-04  0:01:01 1684
   317  3.3161e-04  1.5171e-03  3.2910e-04  5.9002e-02  3.2901e-04  5.0990e-04  1.8949e-04  0:00:49 1683
   318  3.2586e-04  1.4976e-03  3.4071e-04  5.7636e-02  3.2304e-04  5.0452e-04  1.8877e-04  0:00:39 1682
   319  3.2143e-04  1.4786e-03  3.5308e-04  5.5935e-02  3.1841e-04  4.9977e-04  1.8880e-04  0:00:31 1681

  iter  continuity  x-velocity  y-velocity  z-velocity      energy           k       omega     time/iter
   320  3.1843e-04  1.4602e-03  3.6588e-04  5.3881e-02  3.1523e-04  4.9550e-04  1.8865e-04  0:06:01 1680
   321  3.1685e-04  1.4423e-03  3.7880e-04  5.1573e-02  3.1350e-04  4.9165e-04  1.8856e-04  0:04:48 1679
   322  3.1665e-04  1.4251e-03  3.9160e-04  4.8965e-02  3.1317e-04  4.8808e-04  1.8781e-04  0:03:51 1678
   323  3.1765e-04  1.4084e-03  4.0405e-04  4.6113e-02  3.1409e-04  4.8451e-04  1.8612e-04  0:03:04 1677
   324  3.1925e-04  1.3853e-03  4.1376e-04  4.3038e-02  3.1562e-04  4.8093e-04  1.8374e-04  0:02:27 1676
   325  3.2330e-04  1.3642e-03  4.2436e-04  3.9776e-02  3.1966e-04  4.7755e-04  1.8072e-04  0:01:58 1675
   326  3.2825e-04  1.3467e-03  4.3496e-04  3.6428e-02  3.2461e-04  4.7406e-04  1.7777e-04  0:01:34 1674
   327  3.3335e-04  1.3308e-03  4.4496e-04  3.2971e-02  3.2973e-04  4.7029e-04  1.7443e-04  0:01:15 1673
   328  3.3879e-04  1.3163e-03  4.5393e-04  2.9466e-02  3.3521e-04  4.6697e-04  1.7149e-04  0:01:00 1672
   329  3.4463e-04  1.3028e-03  4.6175e-04  2.5893e-02  3.4111e-04  4.6420e-04  1.6871e-04  0:00:48 1671
   330  3.5081e-04  1.2900e-03  4.6850e-04  2.2465e-02  3.4735e-04  4.6172e-04  1.6614e-04  0:00:39 1670

  iter  continuity  x-velocity  y-velocity  z-velocity      energy           k       omega     time/iter
   331  3.5703e-04  1.2777e-03  4.7419e-04  1.9249e-02  3.5365e-04  4.5923e-04  1.6384e-04  0:06:05 1669
   332  3.6316e-04  1.2657e-03  4.7885e-04  1.6383e-02  3.5986e-04  4.5627e-04  1.6172e-04  0:04:51 1668
   333  3.6915e-04  1.2541e-03  4.8249e-04  1.4073e-02  3.6593e-04  4.5319e-04  1.5990e-04  0:03:53 1667
   334  3.7494e-04  1.2430e-03  4.8515e-04  1.2527e-02  3.7181e-04  4.5005e-04  1.5845e-04  0:03:06 1666
   335  3.8043e-04  1.2322e-03  4.8686e-04  1.2004e-02  3.7737e-04  4.4693e-04  1.5698e-04  0:02:29 1665
   336  3.8549e-04  1.2217e-03  4.8766e-04  1.2585e-02  3.8252e-04  4.4397e-04  1.5538e-04  0:01:59 1664
   337  3.9004e-04  1.2115e-03  4.8759e-04  1.3974e-02  3.8715e-04  4.4152e-04  1.5402e-04  0:01:35 1663
   338  3.9402e-04  1.2015e-03  4.8668e-04  1.5871e-02  3.9120e-04  4.3928e-04  1.5277e-04  0:01:16 1662
   339  3.9727e-04  1.1917e-03  4.8495e-04  1.8057e-02  3.9452e-04  4.3711e-04  1.5195e-04  0:01:01 1661
   340  3.9983e-04  1.1821e-03  4.8248e-04  2.0393e-02  3.9715e-04  4.3470e-04  1.5154e-04  0:00:49 1660
   341  4.0186e-04  1.1727e-03  4.7934e-04  2.2700e-02  3.9923e-04  4.3216e-04  1.5119e-04  0:00:39 1659

  iter  continuity  x-velocity  y-velocity  z-velocity      energy           k       omega     time/iter
   342  4.0313e-04  1.1627e-03  4.7434e-04  2.4855e-02  4.0056e-04  4.2972e-04  1.5085e-04  0:06:03 1658
   343  4.0362e-04  1.1520e-03  4.6918e-04  2.6850e-02  4.0108e-04  4.2794e-04  1.5026e-04  0:04:50 1657
   344  4.0374e-04  1.1427e-03  4.6470e-04  2.8660e-02  4.0125e-04  4.2589e-04  1.4986e-04  0:03:52 1656
   345  4.0342e-04  1.1340e-03  4.5988e-04  3.0292e-02  4.0095e-04  4.2367e-04  1.4973e-04  0:03:05 1655
   346  4.0265e-04  1.1255e-03  4.5467e-04  3.1707e-02  4.0020e-04  4.2165e-04  1.4948e-04  0:02:28 1654
   347  4.0145e-04  1.1174e-03  4.4911e-04  3.2923e-02  3.9901e-04  4.1976e-04  1.4853e-04  0:01:58 1653
   348  3.9986e-04  1.1095e-03  4.4325e-04  3.3939e-02  3.9743e-04  4.1773e-04  1.4780e-04  0:01:35 1652
   349  3.9794e-04  1.1018e-03  4.3719e-04  3.4755e-02  3.9550e-04  4.1617e-04  1.4704e-04  0:01:16 1651
   350  3.9580e-04  1.0941e-03  4.3103e-04  3.5358e-02  3.9335e-04  4.1431e-04  1.4657e-04  0:01:01 1650
   351  3.9350e-04  1.0867e-03  4.2486e-04  3.5769e-02  3.9102e-04  4.1234e-04  1.4627e-04  0:06:18 1649
   352  3.9112e-04  1.0797e-03  4.1879e-04  3.5992e-02  3.8861e-04  4.1015e-04  1.4619e-04  0:05:02 1648

  iter  continuity  x-velocity  y-velocity  z-velocity      energy           k       omega     time/iter
   353  3.8873e-04  1.0729e-03  4.1290e-04  3.6039e-02  3.8617e-04  4.0779e-04  1.4621e-04  0:04:02 1647
   354  3.8654e-04  1.0671e-03  4.0694e-04  3.5898e-02  3.8393e-04  4.0566e-04  1.4607e-04  0:03:13 1646
   355  3.8464e-04  1.0610e-03  4.0162e-04  3.5578e-02  3.8196e-04  4.0345e-04  1.4575e-04  0:02:35 1645
   356  3.8311e-04  1.0550e-03  3.9685e-04  3.5095e-02  3.8036e-04  4.0127e-04  1.4548e-04  0:02:04 1644
   357  3.8207e-04  1.0490e-03  3.9261e-04  3.4452e-02  3.7923e-04  3.9890e-04  1.4524e-04  0:01:39 1643
   358  3.8159e-04  1.0434e-03  3.8893e-04  3.3661e-02  3.7867e-04  3.9633e-04  1.4472e-04  0:01:19 1642
   359  3.8181e-04  1.0380e-03  3.8588e-04  3.2731e-02  3.7878e-04  3.9382e-04  1.4455e-04  0:01:03 1641
   360  3.8274e-04  1.0329e-03  3.8352e-04  3.1685e-02  3.7961e-04  3.9107e-04  1.4433e-04  0:00:50 1640
   361  3.8443e-04  1.0279e-03  3.8190e-04  3.0544e-02  3.8118e-04  3.8831e-04  1.4420e-04  0:00:40 1639
   362  3.8667e-04  1.0229e-03  3.8107e-04  2.9303e-02  3.8330e-04  3.8536e-04  1.4388e-04  0:00:32 1638
   363  3.8917e-04  1.0176e-03  3.8109e-04  2.7998e-02  3.8567e-04  3.8232e-04  1.4336e-04  0:05:53 1637

  iter  continuity  x-velocity  y-velocity  z-velocity      energy           k       omega     time/iter
   364  3.9272e-04  1.0124e-03  3.8198e-04  2.6634e-02  3.8909e-04  3.7937e-04  1.4288e-04  0:04:42 1636
   365  3.9709e-04  1.0071e-03  3.8374e-04  2.5212e-02  3.9333e-04  3.7622e-04  1.4253e-04  0:03:46 1635
   366  4.0211e-04  1.0016e-03  3.8637e-04  2.3769e-02  3.9822e-04  3.7224e-04  1.4197e-04  0:03:01 1634
   367  4.0767e-04  9.9596e-04  3.8985e-04  2.2307e-02  4.0365e-04  3.6964e-04  1.4116e-04  0:02:24 1633
   368  4.1363e-04  9.8997e-04  3.9418e-04  2.0861e-02  4.0947e-04  3.6714e-04  1.4070e-04  0:01:55 1632
   369  4.1984e-04  9.8378e-04  3.9934e-04  1.9433e-02  4.1555e-04  3.6454e-04  1.3993e-04  0:01:32 1631
   370  4.2616e-04  9.7728e-04  4.0529e-04  1.8020e-02  4.2174e-04  3.6193e-04  1.3940e-04  0:01:14 1630
   371  4.3246e-04  9.7049e-04  4.1200e-04  1.6666e-02  4.2791e-04  3.5936e-04  1.3903e-04  0:00:59 1629
   372  4.3863e-04  9.6338e-04  4.1942e-04  1.5391e-02  4.3394e-04  3.5663e-04  1.3848e-04  0:00:47 1628
   373  4.4451e-04  9.5598e-04  4.2751e-04  1.4202e-02  4.3969e-04  3.5378e-04  1.3770e-04  0:00:38 1627
   374  4.5003e-04  9.4828e-04  4.3632e-04  1.3096e-02  4.4508e-04  3.5079e-04  1.3660e-04  0:05:55 1626

  iter  continuity  x-velocity  y-velocity  z-velocity      energy           k       omega     time/iter
   375  4.5507e-04  9.4045e-04  4.4570e-04  1.2088e-02  4.4999e-04  3.4744e-04  1.3579e-04  0:04:44 1625
   376  4.5953e-04  9.3256e-04  4.5554e-04  1.1184e-02  4.5433e-04  3.4426e-04  1.3490e-04  0:03:47 1624
   377  4.6335e-04  9.2464e-04  4.6580e-04  1.0390e-02  4.5803e-04  3.4092e-04  1.3414e-04  0:03:02 1623
   378  4.6646e-04  9.1675e-04  4.7640e-04  9.7100e-03  4.6102e-04  3.3744e-04  1.3317e-04  0:02:25 1622
   379  4.6879e-04  9.0896e-04  4.8729e-04  9.1205e-03  4.6324e-04  3.3405e-04  1.3180e-04  0:01:56 1621
   380  4.7029e-04  9.0139e-04  4.9840e-04  8.6371e-03  4.6463e-04  3.3069e-04  1.3032e-04  0:01:33 1620
   381  4.7091e-04  8.9412e-04  5.0963e-04  8.2570e-03  4.6515e-04  3.2744e-04  1.2864e-04  0:01:14 1619
   382  4.7061e-04  8.8727e-04  5.2091e-04  7.9736e-03  4.6476e-04  3.2436e-04  1.2689e-04  0:00:59 1618
   383  4.6930e-04  8.8088e-04  5.3215e-04  7.7816e-03  4.6336e-04  3.2135e-04  1.2510e-04  0:00:47 1617
   384  4.6709e-04  8.7513e-04  5.4328e-04  7.6569e-03  4.6108e-04  3.1820e-04  1.2333e-04  0:00:38 1616
   385  4.6400e-04  8.7013e-04  5.5420e-04  7.5729e-03  4.5791e-04  3.1492e-04  1.2165e-04  0:05:53 1615

  iter  continuity  x-velocity  y-velocity  z-velocity      energy           k       omega     time/iter
   386  4.6007e-04  8.6592e-04  5.6483e-04  7.5279e-03  4.5391e-04  3.1103e-04  1.2001e-04  0:04:42 1614
   387  4.5533e-04  8.6253e-04  5.7509e-04  7.5126e-03  4.4913e-04  3.0712e-04  1.1829e-04  0:03:46 1613
   388  4.4984e-04  8.6007e-04  5.8482e-04  7.5062e-03  4.4359e-04  3.0317e-04  1.1647e-04  0:03:01 1612
   389  4.4365e-04  8.5836e-04  5.9404e-04  7.4942e-03  4.3737e-04  2.9946e-04  1.1471e-04  0:02:24 1611
   390  4.3681e-04  8.5735e-04  6.0265e-04  7.4781e-03  4.3050e-04  2.9578e-04  1.1287e-04  0:01:55 1610
   391  4.2806e-04  8.4922e-04  6.0907e-04  7.4606e-03  4.2174e-04  2.9227e-04  1.1096e-04  0:01:32 1609
   392  4.1817e-04  8.4166e-04  6.1531e-04  7.4322e-03  4.1183e-04  2.8887e-04  1.0919e-04  0:01:14 1608
   393  4.0848e-04  8.3868e-04  6.2112e-04  7.3963e-03  4.0214e-04  2.8547e-04  1.0734e-04  0:00:59 1607
   394  3.9880e-04  8.3698e-04  6.2617e-04  7.3570e-03  3.9249e-04  2.8202e-04  1.0546e-04  0:00:47 1606
   395  3.8910e-04  8.3606e-04  6.3034e-04  7.3120e-03  3.8281e-04  2.7855e-04  1.0353e-04  0:00:38 1605
   396  3.7935e-04  8.3563e-04  6.3352e-04  7.2709e-03  3.7312e-04  2.7518e-04  1.0149e-04  0:05:51 1604

  iter  continuity  x-velocity  y-velocity  z-velocity      energy           k       omega     time/iter
   397  3.6961e-04  8.3562e-04  6.3565e-04  7.2367e-03  3.6343e-04  2.7187e-04  9.9628e-05  0:04:41 1603
   398  3.5993e-04  8.3587e-04  6.3672e-04  7.2114e-03  3.5382e-04  2.6857e-04  9.7942e-05  0:03:44 1602
   399  3.5039e-04  8.3622e-04  6.3675e-04  7.2011e-03  3.4436e-04  2.6523e-04  9.6411e-05  0:02:59 1601
   400  3.4107e-04  8.3646e-04  6.3576e-04  7.2139e-03  3.3512e-04  2.6179e-04  9.4996e-05  0:02:23 1600
   401  3.3204e-04  8.3643e-04  6.3376e-04  7.2445e-03  3.2618e-04  2.5827e-04  9.3582e-05  0:01:55 1599
   402  3.2336e-04  8.3594e-04  6.3077e-04  7.2924e-03  3.1761e-04  2.5482e-04  9.2175e-05  0:01:32 1598
   403  3.1508e-04  8.3483e-04  6.2680e-04  7.3607e-03  3.0943e-04  2.5144e-04  9.0855e-05  0:01:13 1597
   404  3.0725e-04  8.3297e-04  6.2188e-04  7.4502e-03  3.0172e-04  2.4811e-04  8.9816e-05  0:00:59 1596
   405  2.9993e-04  8.3028e-04  6.1603e-04  7.5497e-03  2.9451e-04  2.4501e-04  8.8853e-05  0:00:47 1595
   406  2.9311e-04  8.2665e-04  6.0930e-04  7.6582e-03  2.8781e-04  2.4208e-04  8.7762e-05  0:00:37 1594
   407  2.8682e-04  8.2203e-04  6.0174e-04  7.7743e-03  2.8163e-04  2.3904e-04  8.6714e-05  0:00:30 1593

  iter  continuity  x-velocity  y-velocity  z-velocity      energy           k       omega     time/iter
   408  2.8105e-04  8.1638e-04  5.9341e-04  7.8989e-03  2.7597e-04  2.3582e-04  8.5772e-05  0:05:42 1592
   409  2.7580e-04  8.0968e-04  5.8438e-04  8.0243e-03  2.7083e-04  2.3268e-04  8.4868e-05  0:04:34 1591
   410  2.7108e-04  8.0194e-04  5.7472e-04  8.1456e-03  2.6620e-04  2.2963e-04  8.4028e-05  0:03:39 1590
   411  2.6687e-04  7.9318e-04  5.6453e-04  8.2647e-03  2.6208e-04  2.2666e-04  8.3106e-05  0:02:55 1589
   412  2.6317e-04  7.8344e-04  5.5389e-04  8.3708e-03  2.5847e-04  2.2377e-04  8.2196e-05  0:02:20 1588
   413  2.5999e-04  7.7280e-04  5.4290e-04  8.4653e-03  2.5536e-04  2.2024e-04  8.1225e-05  0:01:52 1587
   414  2.5733e-04  7.6132e-04  5.3167e-04  8.5436e-03  2.5275e-04  2.1658e-04  8.0410e-05  0:01:29 1586
   415  2.5518e-04  7.4910e-04  5.2029e-04  8.6090e-03  2.5066e-04  2.1275e-04  7.9764e-05  0:01:11 1585
   416  2.5357e-04  7.3624e-04  5.0888e-04  8.6601e-03  2.4908e-04  2.0895e-04  7.9227e-05  0:00:57 1584
   417  2.5251e-04  7.2287e-04  4.9753e-04  8.6966e-03  2.4805e-04  2.0510e-04  7.8424e-05  0:00:46 1583
   418  2.5201e-04  7.0909e-04  4.8635e-04  8.7065e-03  2.4758e-04  2.0128e-04  7.7657e-05  0:00:37 1582

  iter  continuity  x-velocity  y-velocity  z-velocity      energy           k       omega     time/iter
   419  2.5210e-04  6.9504e-04  4.7545e-04  8.7000e-03  2.4767e-04  1.9759e-04  7.7075e-05  0:05:45 1581
   420  2.5278e-04  6.8083e-04  4.6491e-04  8.6684e-03  2.4836e-04  1.9408e-04  7.6536e-05  0:04:36 1580
   421  2.5407e-04  6.6659e-04  4.5484e-04  8.6113e-03  2.4965e-04  1.9081e-04  7.6020e-05  0:03:41 1579
   422  2.5597e-04  6.5244e-04  4.4531e-04  8.5344e-03  2.5154e-04  1.8762e-04  7.5580e-05  0:02:57 1578
   423  2.5846e-04  6.3849e-04  4.3641e-04  8.4378e-03  2.5402e-04  1.8449e-04  7.5069e-05  0:02:21 1577
   424  2.6150e-04  6.2480e-04  4.2820e-04  8.3166e-03  2.5705e-04  1.8147e-04  7.4518e-05  0:01:53 1576
   425  2.6510e-04  6.1152e-04  4.2075e-04  8.1822e-03  2.6063e-04  1.7859e-04  7.3747e-05  0:01:30 1575
   426  2.6920e-04  5.9874e-04  4.1410e-04  8.0390e-03  2.6472e-04  1.7582e-04  7.2871e-05  0:01:12 1574
   427  2.7375e-04  5.8654e-04  4.0829e-04  7.8888e-03  2.6925e-04  1.7311e-04  7.2101e-05  0:00:58 1573
   428  2.7867e-04  5.7500e-04  4.0335e-04  7.7324e-03  2.7415e-04  1.7035e-04  7.1521e-05  0:06:00 1572
   429  2.8390e-04  5.6413e-04  3.9928e-04  7.5730e-03  2.7936e-04  1.6753e-04  7.1128e-05  0:04:48 1571

  iter  continuity  x-velocity  y-velocity  z-velocity      energy           k       omega     time/iter
   430  2.8935e-04  5.5394e-04  3.9611e-04  7.4118e-03  2.8478e-04  1.6481e-04  7.0671e-05  0:03:50 1570
   431  2.9493e-04  5.4442e-04  3.9381e-04  7.2498e-03  2.9035e-04  1.6223e-04  7.0112e-05  0:03:04 1569
   432  3.0056e-04  5.3557e-04  3.9236e-04  7.0867e-03  2.9595e-04  1.5984e-04  6.9546e-05  0:02:27 1568
   433  3.0615e-04  5.2745e-04  3.9173e-04  6.9282e-03  3.0152e-04  1.5754e-04  6.8968e-05  0:01:58 1567
   434  3.1161e-04  5.2005e-04  3.9189e-04  6.7783e-03  3.0695e-04  1.5534e-04  6.8289e-05  0:01:34 1566
   435  3.1686e-04  5.1335e-04  3.9277e-04  6.6381e-03  3.1217e-04  1.5331e-04  6.7634e-05  0:01:15 1565
   436  3.2181e-04  5.0733e-04  3.9434e-04  6.5080e-03  3.1709e-04  1.5138e-04  6.6886e-05  0:01:00 1564
   437  3.2640e-04  5.0197e-04  3.9653e-04  6.3875e-03  3.2165e-04  1.4953e-04  6.6107e-05  0:00:48 1563
   438  3.3055e-04  4.9725e-04  3.9929e-04  6.2773e-03  3.2577e-04  1.4772e-04  6.5280e-05  0:00:38 1562
   439  3.3421e-04  4.9314e-04  4.0255e-04  6.1778e-03  3.2939e-04  1.4600e-04  6.4437e-05  0:00:31 1561
   440  3.3732e-04  4.8961e-04  4.0624e-04  6.0893e-03  3.3247e-04  1.4435e-04  6.3538e-05  0:05:37 1560

  iter  continuity  x-velocity  y-velocity  z-velocity      energy           k       omega     time/iter
   441  3.3984e-04  4.8666e-04  4.1029e-04  6.0125e-03  3.3495e-04  1.4272e-04  6.2617e-05  0:04:29 1559
   442  3.4174e-04  4.8428e-04  4.1464e-04  5.9468e-03  3.3682e-04  1.4120e-04  6.1664e-05  0:03:35 1558
   443  3.4299e-04  4.8246e-04  4.1922e-04  5.8909e-03  3.3804e-04  1.3972e-04  6.0702e-05  0:02:52 1557
   444  3.4357e-04  4.8119e-04  4.2396e-04  5.8407e-03  3.3859e-04  1.3825e-04  5.9766e-05  0:02:18 1556
   445  3.4348e-04  4.8045e-04  4.2880e-04  5.7868e-03  3.3847e-04  1.3677e-04  5.8842e-05  0:01:50 1555
   446  3.4272e-04  4.8024e-04  4.3366e-04  5.7311e-03  3.3768e-04  1.3531e-04  5.7944e-05  0:01:28 1554
   447  3.4130e-04  4.8055e-04  4.3850e-04  5.6760e-03  3.3624e-04  1.3381e-04  5.7022e-05  0:01:10 1553
   448  3.3923e-04  4.8135e-04  4.4324e-04  5.6214e-03  3.3415e-04  1.3231e-04  5.6082e-05  0:00:56 1552
   449  3.3654e-04  4.8264e-04  4.4782e-04  5.5686e-03  3.3144e-04  1.3078e-04  5.5129e-05  0:00:45 1551
   450  3.3325e-04  4.8439e-04  4.5220e-04  5.5183e-03  3.2814e-04  1.2916e-04  5.4219e-05  0:05:46 1550
   451  3.2940e-04  4.8655e-04  4.5632e-04  5.4711e-03  3.2427e-04  1.2749e-04  5.3323e-05  0:04:37 1549

  iter  continuity  x-velocity  y-velocity  z-velocity      energy           k       omega     time/iter
   452  3.2503e-04  4.8909e-04  4.6012e-04  5.4262e-03  3.1989e-04  1.2582e-04  5.2485e-05  0:03:41 1548
   453  3.2019e-04  4.9195e-04  4.6356e-04  5.3818e-03  3.1505e-04  1.2411e-04  5.1716e-05  0:02:57 1547
   454  3.1493e-04  4.9508e-04  4.6661e-04  5.3368e-03  3.0978e-04  1.2241e-04  5.0994e-05  0:02:21 1546
   455  3.0930e-04  4.9841e-04  4.6922e-04  5.2905e-03  3.0415e-04  1.2065e-04  5.0334e-05  0:01:53 1545
   456  3.0334e-04  5.0190e-04  4.7137e-04  5.2422e-03  2.9820e-04  1.1891e-04  4.9689e-05  0:01:30 1544
   457  2.9713e-04  5.0545e-04  4.7302e-04  5.1929e-03  2.9199e-04  1.1719e-04  4.9035e-05  0:01:12 1543
   458  2.9070e-04  5.0899e-04  4.7415e-04  5.1430e-03  2.8558e-04  1.1548e-04  4.8405e-05  0:00:58 1542
   459  2.8411e-04  5.1246e-04  4.7474e-04  5.0925e-03  2.7901e-04  1.1376e-04  4.7779e-05  0:00:46 1541
   460  2.7742e-04  5.1577e-04  4.7479e-04  5.0408e-03  2.7234e-04  1.1209e-04  4.7168e-05  0:00:37 1540
   461  2.7068e-04  5.1887e-04  4.7429e-04  4.9888e-03  2.6563e-04  1.1038e-04  4.6529e-05  0:05:37 1539
   462  2.6394e-04  5.2168e-04  4.7323e-04  4.9364e-03  2.5892e-04  1.0869e-04  4.5920e-05  0:04:30 1538

  iter  continuity  x-velocity  y-velocity  z-velocity      energy           k       omega     time/iter
   463  2.5724e-04  5.2415e-04  4.7162e-04  4.8854e-03  2.5226e-04  1.0700e-04  4.5315e-05  0:03:36 1537
   464  2.5064e-04  5.2621e-04  4.6946e-04  4.8370e-03  2.4569e-04  1.0532e-04  4.4681e-05  0:02:52 1536
   465  2.4416e-04  5.2783e-04  4.6677e-04  4.7919e-03  2.3926e-04  1.0363e-04  4.4008e-05  0:02:18 1535
   466  2.3786e-04  5.2894e-04  4.6356e-04  4.7513e-03  2.3299e-04  1.0197e-04  4.3307e-05  0:01:50 1534
   467  2.3175e-04  5.2953e-04  4.5985e-04  4.7170e-03  2.2694e-04  1.0031e-04  4.2593e-05  0:01:28 1533
   468  2.2587e-04  5.2955e-04  4.5567e-04  4.6903e-03  2.2111e-04  9.8647e-05  4.1877e-05  0:01:10 1532
   469  2.2024e-04  5.2898e-04  4.5104e-04  4.6720e-03  2.1554e-04  9.6994e-05  4.1157e-05  0:00:56 1531
   470  2.1489e-04  5.2781e-04  4.4598e-04  4.6628e-03  2.1024e-04  9.5333e-05  4.0423e-05  0:00:45 1530
   471  2.0982e-04  5.2603e-04  4.4054e-04  4.6633e-03  2.0524e-04  9.3632e-05  3.9684e-05  0:00:36 1529
   472  2.0505e-04  5.2364e-04  4.3475e-04  4.6730e-03  2.0052e-04  9.1893e-05  3.8950e-05  0:05:34 1528
   473  2.0058e-04  5.2063e-04  4.2864e-04  4.6948e-03  1.9612e-04  9.0145e-05  3.8213e-05  0:04:27 1527

  iter  continuity  x-velocity  y-velocity  z-velocity      energy           k       omega     time/iter
   474  1.9641e-04  5.1704e-04  4.2225e-04  4.7293e-03  1.9202e-04  8.8381e-05  3.7463e-05  0:03:34 1526
   475  1.9255e-04  5.1287e-04  4.1562e-04  4.7743e-03  1.8822e-04  8.6629e-05  3.6726e-05  0:02:51 1525
   476  1.8899e-04  5.0815e-04  4.0880e-04  4.8276e-03  1.8472e-04  8.4870e-05  3.5987e-05  0:02:17 1524
   477  1.8572e-04  5.0291e-04  4.0182e-04  4.9028e-03  1.8151e-04  8.3121e-05  3.5245e-05  0:01:49 1523
   478  1.8274e-04  4.9718e-04  3.9472e-04  5.0022e-03  1.7859e-04  8.1373e-05  3.4499e-05  0:01:27 1522
   479  1.8004e-04  4.9101e-04  3.8756e-04  5.1066e-03  1.7596e-04  7.9637e-05  3.3781e-05  0:01:10 1521
   480  1.7764e-04  4.8442e-04  3.8036e-04  5.2061e-03  1.7362e-04  7.7912e-05  3.3095e-05  0:00:56 1520
   481  1.7548e-04  4.7749e-04  3.7318e-04  5.2973e-03  1.7152e-04  7.6207e-05  3.2423e-05  0:00:45 1519
   482  1.7353e-04  4.7027e-04  3.6604e-04  5.3779e-03  1.6963e-04  7.4515e-05  3.1767e-05  0:05:39 1518
   483  1.7182e-04  4.6280e-04  3.5899e-04  5.4514e-03  1.6797e-04  7.2859e-05  3.1132e-05  0:04:31 1517
   484  1.7036e-04  4.5512e-04  3.5205e-04  5.5179e-03  1.6656e-04  7.1229e-05  3.0512e-05  0:03:37 1516

  iter  continuity  x-velocity  y-velocity  z-velocity      energy           k       omega     time/iter
   485  1.6913e-04  4.4729e-04  3.4526e-04  5.5771e-03  1.6538e-04  6.9647e-05  2.9897e-05  0:02:53 1515
   486  1.6811e-04  4.3936e-04  3.3864e-04  5.6287e-03  1.6441e-04  6.8101e-05  2.9311e-05  0:02:19 1514
   487  1.6730e-04  4.3137e-04  3.3222e-04  5.6710e-03  1.6364e-04  6.6594e-05  2.8748e-05  0:01:51 1513
   488  1.6667e-04  4.2337e-04  3.2603e-04  5.7027e-03  1.6306e-04  6.5144e-05  2.8255e-05  0:01:29 1512
   489  1.6621e-04  4.1542e-04  3.2007e-04  5.7228e-03  1.6264e-04  6.3733e-05  2.7791e-05  0:01:11 1511
   490  1.6589e-04  4.0756e-04  3.1438e-04  5.7306e-03  1.6236e-04  6.2340e-05  2.7275e-05  0:00:57 1510
   491  1.6571e-04  3.9985e-04  3.0898e-04  5.7274e-03  1.6222e-04  6.0957e-05  2.6778e-05  0:05:47 1509
   492  1.6564e-04  3.9232e-04  3.0387e-04  5.7136e-03  1.6219e-04  5.9605e-05  2.6290e-05  0:04:37 1508
   493  1.6567e-04  3.8500e-04  2.9907e-04  5.6888e-03  1.6225e-04  5.8274e-05  2.5825e-05  0:03:42 1507
   494  1.6578e-04  3.7794e-04  2.9459e-04  5.6526e-03  1.6239e-04  5.6989e-05  2.5426e-05  0:02:57 1506
   495  1.6595e-04  3.7117e-04  2.9042e-04  5.6052e-03  1.6260e-04  5.5748e-05  2.5029e-05  0:02:22 1505

  iter  continuity  x-velocity  y-velocity  z-velocity      energy           k       omega     time/iter
   496  1.6617e-04  3.6470e-04  2.8658e-04  5.5465e-03  1.6285e-04  5.4549e-05  2.4639e-05  0:01:53 1504
   497  1.6642e-04  3.5858e-04  2.8304e-04  5.4777e-03  1.6313e-04  5.3376e-05  2.4263e-05  0:01:31 1503
   498  1.6669e-04  3.5279e-04  2.7980e-04  5.3975e-03  1.6343e-04  5.2262e-05  2.3889e-05  0:01:12 1502
   499  1.6696e-04  3.4736e-04  2.7685e-04  5.3063e-03  1.6372e-04  5.1192e-05  2.3512e-05  0:00:58 1501
   500  1.6720e-04  3.4229e-04  2.7417e-04  5.2040e-03  1.6399e-04  5.0165e-05  2.3122e-05  0:05:46 1500
   501  1.6741e-04  3.3759e-04  2.7174e-04  5.0905e-03  1.6422e-04  4.9184e-05  2.2737e-05  0:04:37 1499
   502  1.6757e-04  3.3323e-04  2.6955e-04  4.9659e-03  1.6440e-04  4.8229e-05  2.2357e-05  0:03:41 1498
   503  1.6766e-04  3.2923e-04  2.6759e-04  4.8309e-03  1.6451e-04  4.7312e-05  2.1974e-05  0:02:57 1497
   504  1.6766e-04  3.2557e-04  2.6582e-04  4.6856e-03  1.6454e-04  4.6447e-05  2.1605e-05  0:02:21 1496
   505  1.6757e-04  3.2224e-04  2.6424e-04  4.5308e-03  1.6447e-04  4.5630e-05  2.1245e-05  0:01:53 1495
   506  1.6737e-04  3.1922e-04  2.6282e-04  4.3672e-03  1.6429e-04  4.4846e-05  2.0894e-05  0:01:30 1494

  iter  continuity  x-velocity  y-velocity  z-velocity      energy           k       omega     time/iter
   507  1.6704e-04  3.1650e-04  2.6155e-04  4.1963e-03  1.6398e-04  4.4105e-05  2.0548e-05  0:01:12 1493
   508  1.6659e-04  3.1406e-04  2.6040e-04  4.0207e-03  1.6354e-04  4.3387e-05  2.0201e-05  0:00:58 1492
   509  1.6599e-04  3.1188e-04  2.5936e-04  3.8420e-03  1.6297e-04  4.2703e-05  1.9856e-05  0:05:44 1491
   510  1.6524e-04  3.0995e-04  2.5840e-04  3.6620e-03  1.6224e-04  4.2059e-05  1.9522e-05  0:04:35 1490
   511  1.6434e-04  3.0825e-04  2.5751e-04  3.4832e-03  1.6136e-04  4.1441e-05  1.9199e-05  0:03:40 1489
   512  1.6328e-04  3.0675e-04  2.5667e-04  3.3064e-03  1.6032e-04  4.0837e-05  1.8881e-05  0:02:56 1488
   513  1.6207e-04  3.0545e-04  2.5586e-04  3.1330e-03  1.5912e-04  4.0262e-05  1.8571e-05  0:02:21 1487
   514  1.6069e-04  3.0433e-04  2.5506e-04  2.9638e-03  1.5777e-04  3.9718e-05  1.8269e-05  0:01:52 1486
   515  1.5916e-04  3.0336e-04  2.5426e-04  2.8029e-03  1.5625e-04  3.9204e-05  1.7966e-05  0:01:30 1485
   516  1.5748e-04  3.0253e-04  2.5344e-04  2.6509e-03  1.5459e-04  3.8709e-05  1.7661e-05  0:01:12 1484
   517  1.5564e-04  3.0182e-04  2.5258e-04  2.5084e-03  1.5277e-04  3.8229e-05  1.7370e-05  0:00:57 1483

  iter  continuity  x-velocity  y-velocity  z-velocity      energy           k       omega     time/iter
   518  1.5367e-04  3.0122e-04  2.5167e-04  2.3773e-03  1.5081e-04  3.7752e-05  1.7084e-05  0:00:46 1482
   519  1.5155e-04  3.0071e-04  2.5069e-04  2.2582e-03  1.4872e-04  3.7286e-05  1.6817e-05  0:05:33 1481
   520  1.4931e-04  3.0028e-04  2.4965e-04  2.1529e-03  1.4650e-04  3.6838e-05  1.6565e-05  0:04:26 1480
   521  1.4695e-04  2.9990e-04  2.4851e-04  2.0614e-03  1.4416e-04  3.6414e-05  1.6321e-05  0:03:33 1479
   522  1.4448e-04  2.9956e-04  2.4728e-04  1.9827e-03  1.4171e-04  3.6012e-05  1.6088e-05  0:02:50 1478
   523  1.4191e-04  2.9925e-04  2.4595e-04  1.9165e-03  1.3917e-04  3.5627e-05  1.5861e-05  0:02:16 1477
   524  1.3926e-04  2.9894e-04  2.4450e-04  1.8613e-03  1.3654e-04  3.5244e-05  1.5654e-05  0:01:49 1476
   525  1.3654e-04  2.9863e-04  2.4294e-04  1.8168e-03  1.3385e-04  3.4859e-05  1.5448e-05  0:01:27 1475
   526  1.3376e-04  2.9830e-04  2.4126e-04  1.7815e-03  1.3109e-04  3.4495e-05  1.5248e-05  0:01:09 1474
   527  1.3094e-04  2.9793e-04  2.3945e-04  1.7533e-03  1.2829e-04  3.4146e-05  1.5040e-05  0:00:56 1473
   528  1.2808e-04  2.9751e-04  2.3751e-04  1.7299e-03  1.2546e-04  3.3818e-05  1.4835e-05  0:00:44 1472

  iter  continuity  x-velocity  y-velocity  z-velocity      energy           k       omega     time/iter
   529  1.2520e-04  2.9702e-04  2.3544e-04  1.7095e-03  1.2261e-04  3.3529e-05  1.4624e-05  0:00:36 1471
   530  1.2231e-04  2.9646e-04  2.3325e-04  1.6902e-03  1.1975e-04  3.3262e-05  1.4412e-05  0:05:22 1470
   531  1.1943e-04  2.9580e-04  2.3093e-04  1.6708e-03  1.1689e-04  3.3020e-05  1.4197e-05  0:04:18 1469
   532  1.1657e-04  2.9504e-04  2.2848e-04  1.6505e-03  1.1406e-04  3.2786e-05  1.3983e-05  0:03:26 1468
   533  1.1373e-04  2.9416e-04  2.2591e-04  1.6285e-03  1.1125e-04  3.2556e-05  1.3778e-05  0:02:45 1467
   534  1.1094e-04  2.9317e-04  2.2322e-04  1.6039e-03  1.0849e-04  3.2354e-05  1.3569e-05  0:02:12 1466
   535  1.0820e-04  2.9204e-04  2.2042e-04  1.5759e-03  1.0579e-04  3.2165e-05  1.3342e-05  0:01:45 1465
   536  1.0553e-04  2.9078e-04  2.1752e-04  1.5448e-03  1.0314e-04  3.1972e-05  1.3123e-05  0:01:24 1464
   537  1.0292e-04  2.8938e-04  2.1452e-04  1.5098e-03  1.0057e-04  3.1778e-05  1.2910e-05  0:01:07 1463
   538  1.0040e-04  2.8783e-04  2.1143e-04  1.4724e-03  9.8086e-05  3.1591e-05  1.2697e-05  0:00:54 1462
   539  9.7973e-05  2.8613e-04  2.0826e-04  1.4328e-03  9.5688e-05  3.1410e-05  1.2496e-05  0:00:43 1461

  iter  continuity  x-velocity  y-velocity  z-velocity      energy           k       omega     time/iter
   540  9.5638e-05  2.8428e-04  2.0501e-04  1.3920e-03  9.3387e-05  3.1245e-05  1.2296e-05  0:00:34 1460
   541  9.3405e-05  2.8228e-04  2.0170e-04  1.3504e-03  9.1188e-05  3.1090e-05  1.2101e-05  0:05:19 1459
   542  9.1278e-05  2.8013e-04  1.9834e-04  1.3095e-03  8.9095e-05  3.0938e-05  1.1906e-05  0:04:15 1458
   543  8.9262e-05  2.7784e-04  1.9493e-04  1.2698e-03  8.7112e-05  3.0788e-05  1.1709e-05  0:03:24 1457
   544  8.7358e-05  2.7541e-04  1.9148e-04  1.2334e-03  8.5242e-05  3.0627e-05  1.1517e-05  0:02:43 1456
   545  8.5568e-05  2.7284e-04  1.8801e-04  1.2017e-03  8.3486e-05  3.0455e-05  1.1335e-05  0:02:10 1455
   546  8.3894e-05  2.7015e-04  1.8453e-04  1.1762e-03  8.1846e-05  3.0286e-05  1.1150e-05  0:01:44 1454
   547  8.2335e-05  2.6735e-04  1.8104e-04  1.1583e-03  8.0320e-05  3.0113e-05  1.0972e-05  0:01:23 1453
   548  8.0891e-05  2.6443e-04  1.7757e-04  1.1490e-03  7.8909e-05  2.9955e-05  1.0810e-05  0:01:07 1452
   549  7.9561e-05  2.6143e-04  1.7411e-04  1.1483e-03  7.7611e-05  2.9800e-05  1.0657e-05  0:00:53 1451
   550  7.8341e-05  2.5834e-04  1.7068e-04  1.1552e-03  7.6423e-05  2.9638e-05  1.0508e-05  0:00:43 1450

  iter  continuity  x-velocity  y-velocity  z-velocity      energy           k       omega     time/iter
   551  7.7231e-05  2.5518e-04  1.6730e-04  1.1699e-03  7.5344e-05  2.9472e-05  1.0363e-05  0:05:24 1449
   552  7.6227e-05  2.5196e-04  1.6396e-04  1.1923e-03  7.4370e-05  2.9312e-05  1.0220e-05  0:04:19 1448
   553  7.5326e-05  2.4871e-04  1.6069e-04  1.2221e-03  7.3499e-05  2.9152e-05  1.0079e-05  0:03:27 1447
   554  7.4525e-05  2.4543e-04  1.5749e-04  1.2582e-03  7.2726e-05  2.8999e-05  9.9404e-06  0:02:45 1446
   555  7.3819e-05  2.4214e-04  1.5437e-04  1.2990e-03  7.2048e-05  2.8831e-05  9.8112e-06  0:02:12 1445
   556  7.3205e-05  2.3886e-04  1.5134e-04  1.3421e-03  7.1460e-05  2.8654e-05  9.6922e-06  0:01:46 1444
   557  7.2677e-05  2.3560e-04  1.4840e-04  1.3864e-03  7.0959e-05  2.8463e-05  9.5762e-06  0:01:25 1443
   558  7.2227e-05  2.3237e-04  1.4557e-04  1.4305e-03  7.0533e-05  2.8283e-05  9.4616e-06  0:01:08 1442
   559  7.1854e-05  2.2919e-04  1.4284e-04  1.4730e-03  7.0184e-05  2.8086e-05  9.3490e-06  0:00:54 1441
   560  7.1549e-05  2.2609e-04  1.4023e-04  1.5123e-03  6.9902e-05  2.7872e-05  9.2498e-06  0:00:43 1440
   561  7.1309e-05  2.2306e-04  1.3774e-04  1.5475e-03  6.9685e-05  2.7644e-05  9.1537e-06  0:05:22 1439

  iter  continuity  x-velocity  y-velocity  z-velocity      energy           k       omega     time/iter
   562  7.1134e-05  2.2012e-04  1.3537e-04  1.5782e-03  6.9531e-05  2.7405e-05  9.0694e-06  0:04:18 1438
   563  7.1017e-05  2.1727e-04  1.3313e-04  1.6034e-03  6.9434e-05  2.7150e-05  8.9868e-06  0:03:26 1437
   564  7.0952e-05  2.1453e-04  1.3101e-04  1.6227e-03  6.9389e-05  2.6888e-05  8.8941e-06  0:02:45 1436
   565  7.0928e-05  2.1190e-04  1.2901e-04  1.6354e-03  6.9384e-05  2.6635e-05  8.8117e-06  0:02:12 1435
   566  7.0939e-05  2.0938e-04  1.2713e-04  1.6409e-03  6.9413e-05  2.6367e-05  8.7379e-06  0:01:45 1434
   567  7.0973e-05  2.0699e-04  1.2538e-04  1.6394e-03  6.9465e-05  2.6081e-05  8.6688e-06  0:01:24 1433
   568  7.1023e-05  2.0473e-04  1.2374e-04  1.6300e-03  6.9531e-05  2.5781e-05  8.6100e-06  0:01:07 1432
   569  7.1078e-05  2.0258e-04  1.2222e-04  1.6129e-03  6.9603e-05  2.5477e-05  8.5580e-06  0:00:54 1431
   570  7.1132e-05  2.0056e-04  1.2082e-04  1.5905e-03  6.9672e-05  2.5158e-05  8.5149e-06  0:00:43 1430
   571  7.1176e-05  1.9867e-04  1.1953e-04  1.5628e-03  6.9730e-05  2.4853e-05  8.4841e-06  0:00:34 1429
   572  7.1202e-05  1.9691e-04  1.1834e-04  1.5308e-03  6.9770e-05  2.4554e-05  8.4694e-06  0:05:13 1428

  iter  continuity  x-velocity  y-velocity  z-velocity      energy           k       omega     time/iter
   573  7.1203e-05  1.9527e-04  1.1726e-04  1.4945e-03  6.9785e-05  2.4251e-05  8.4634e-06  0:04:10 1427
   574  7.1173e-05  1.9376e-04  1.1626e-04  1.4549e-03  6.9768e-05  2.3936e-05  8.4595e-06  0:03:20 1426
   575  7.1106e-05  1.9236e-04  1.1536e-04  1.4125e-03  6.9713e-05  2.3621e-05  8.4587e-06  0:02:40 1425
   576  7.0996e-05  1.9108e-04  1.1453e-04  1.3675e-03  6.9615e-05  2.3308e-05  8.4605e-06  0:02:08 1424
   577  7.0838e-05  1.8991e-04  1.1378e-04  1.3207e-03  6.9468e-05  2.2990e-05  8.4656e-06  0:01:42 1423
   578  7.0626e-05  1.8883e-04  1.1309e-04  1.2725e-03  6.9267e-05  2.2705e-05  8.4737e-06  0:01:22 1422
   579  7.0355e-05  1.8786e-04  1.1245e-04  1.2230e-03  6.9007e-05  2.2419e-05  8.4938e-06  0:01:05 1421
   580  7.0023e-05  1.8697e-04  1.1186e-04  1.1725e-03  6.8685e-05  2.2127e-05  8.5155e-06  0:00:52 1420
   581  6.9625e-05  1.8616e-04  1.1131e-04  1.1219e-03  6.8298e-05  2.1836e-05  8.5371e-06  0:00:42 1419
   582  6.9161e-05  1.8543e-04  1.1079e-04  1.0709e-03  6.7845e-05  2.1553e-05  8.5613e-06  0:05:17 1418
   583  6.8629e-05  1.8476e-04  1.1028e-04  1.0201e-03  6.7323e-05  2.1276e-05  8.5871e-06  0:04:13 1417

  iter  continuity  x-velocity  y-velocity  z-velocity      energy           k       omega     time/iter
   584  6.8029e-05  1.8416e-04  1.0979e-04  9.7013e-04  6.6733e-05  2.0999e-05  8.6154e-06  0:03:23 1416
   585  6.7360e-05  1.8361e-04  1.0931e-04  9.2169e-04  6.6073e-05  2.0755e-05  8.6504e-06  0:02:42 1415
   586  6.6623e-05  1.8311e-04  1.0883e-04  8.7539e-04  6.5346e-05  2.0532e-05  8.6893e-06  0:02:09 1414
   587  6.5819e-05  1.8265e-04  1.0834e-04  8.3201e-04  6.4553e-05  2.0321e-05  8.7287e-06  0:01:44 1413
   588  6.4952e-05  1.8223e-04  1.0784e-04  7.9299e-04  6.3696e-05  2.0117e-05  8.7652e-06  0:01:23 1412
   589  6.4022e-05  1.8183e-04  1.0732e-04  7.5892e-04  6.2777e-05  1.9915e-05  8.8000e-06  0:01:06 1411
   590  6.3035e-05  1.8147e-04  1.0678e-04  7.3026e-04  6.1800e-05  1.9713e-05  8.8338e-06  0:00:53 1410
   591  6.1994e-05  1.8112e-04  1.0622e-04  7.0720e-04  6.0769e-05  1.9520e-05  8.8640e-06  0:00:42 1409
   592  6.0903e-05  1.8078e-04  1.0562e-04  6.8977e-04  5.9689e-05  1.9344e-05  8.8904e-06  0:00:34 1408
   593  5.9769e-05  1.8045e-04  1.0499e-04  6.7803e-04  5.8566e-05  1.9178e-05  8.9157e-06  0:00:27 1407
   594  5.8597e-05  1.8012e-04  1.0431e-04  6.7155e-04  5.7405e-05  1.9026e-05  8.9373e-06  0:05:03 1406

  iter  continuity  x-velocity  y-velocity  z-velocity      energy           k       omega     time/iter
   595  5.7393e-05  1.7979e-04  1.0360e-04  6.6972e-04  5.6213e-05  1.8882e-05  8.9636e-06  0:04:02 1405
   596  5.6165e-05  1.7944e-04  1.0284e-04  6.7161e-04  5.4997e-05  1.8741e-05  8.9939e-06  0:03:14 1404
   597  5.4919e-05  1.7908e-04  1.0203e-04  6.7638e-04  5.3763e-05  1.8602e-05  9.0211e-06  0:02:35 1403
   598  5.3662e-05  1.7869e-04  1.0118e-04  6.8290e-04  5.2518e-05  1.8463e-05  9.0446e-06  0:02:04 1402
   599  5.2402e-05  1.7828e-04  1.0028e-04  6.9030e-04  5.1271e-05  1.8327e-05  9.0667e-06  0:01:39 1401
   600  5.1144e-05  1.7783e-04  9.9323e-05  6.9789e-04  5.0027e-05  1.8191e-05  9.0845e-06  0:01:19 1400
   601  4.9898e-05  1.7734e-04  9.8320e-05  7.0505e-04  4.8793e-05  1.8062e-05  9.0909e-06  0:01:03 1399
   602  4.8668e-05  1.7681e-04  9.7267e-05  7.1139e-04  4.7578e-05  1.7935e-05  9.0928e-06  0:00:51 1398
   603  4.7462e-05  1.7623e-04  9.6165e-05  7.1662e-04  4.6386e-05  1.7823e-05  9.0942e-06  0:00:40 1397
   604  4.6285e-05  1.7560e-04  9.5015e-05  7.2006e-04  4.5224e-05  1.7725e-05  9.0945e-06  0:05:11 1396
   605  4.5144e-05  1.7492e-04  9.3819e-05  7.2166e-04  4.4097e-05  1.7631e-05  9.0933e-06  0:04:09 1395

  iter  continuity  x-velocity  y-velocity  z-velocity      energy           k       omega     time/iter
   606  4.4041e-05  1.7418e-04  9.2580e-05  7.2140e-04  4.3011e-05  1.7547e-05  9.0905e-06  0:03:19 1394
   607  4.2984e-05  1.7338e-04  9.1299e-05  7.1926e-04  4.1968e-05  1.7470e-05  9.0864e-06  0:02:39 1393
   608  4.1974e-05  1.7253e-04  8.9980e-05  7.1529e-04  4.0975e-05  1.7400e-05  9.0816e-06  0:02:07 1392
   609  4.1015e-05  1.7162e-04  8.8626e-05  7.0945e-04  4.0032e-05  1.7340e-05  9.0756e-06  0:01:42 1391
   610  4.0110e-05  1.7064e-04  8.7241e-05  7.0175e-04  3.9144e-05  1.7284e-05  9.0682e-06  0:01:21 1390
   611  3.9260e-05  1.6962e-04  8.5829e-05  6.9225e-04  3.8310e-05  1.7233e-05  9.0610e-06  0:01:05 1389
   612  3.8467e-05  1.6854e-04  8.4394e-05  6.8092e-04  3.7534e-05  1.7187e-05  9.0549e-06  0:00:52 1388
   613  3.7731e-05  1.6740e-04  8.2941e-05  6.6826e-04  3.6814e-05  1.7144e-05  9.0499e-06  0:00:42 1387
   614  3.7052e-05  1.6622e-04  8.1475e-05  6.5453e-04  3.6152e-05  1.7105e-05  9.0485e-06  0:05:10 1386
   615  3.6430e-05  1.6500e-04  8.0001e-05  6.4002e-04  3.5546e-05  1.7075e-05  9.0465e-06  0:04:08 1385
   616  3.5864e-05  1.6373e-04  7.8524e-05  6.2480e-04  3.4996e-05  1.7047e-05  9.0471e-06  0:03:18 1384

  iter  continuity  x-velocity  y-velocity  z-velocity      energy           k       omega     time/iter
   617  3.5353e-05  1.6243e-04  7.7049e-05  6.0928e-04  3.4501e-05  1.7023e-05  9.0477e-06  0:02:39 1383
   618  3.4894e-05  1.6110e-04  7.5582e-05  5.9370e-04  3.4058e-05  1.7007e-05  9.0486e-06  0:02:07 1382
   619  3.4488e-05  1.5974e-04  7.4127e-05  5.7810e-04  3.3666e-05  1.7000e-05  9.0505e-06  0:01:41 1381
   620  3.4131e-05  1.5837e-04  7.2690e-05  5.6292e-04  3.3324e-05  1.6998e-05  9.0549e-06  0:01:21 1380
   621  3.3822e-05  1.5698e-04  7.1277e-05  5.4828e-04  3.3029e-05  1.6997e-05  9.0602e-06  0:01:05 1379
   622  3.3560e-05  1.5559e-04  6.9891e-05  5.3423e-04  3.2780e-05  1.6999e-05  9.0665e-06  0:05:27 1378
   623  3.3342e-05  1.5420e-04  6.8538e-05  5.2103e-04  3.2574e-05  1.7014e-05  9.0752e-06  0:04:22 1377
   624  3.3166e-05  1.5281e-04  6.7222e-05  5.0878e-04  3.2410e-05  1.7042e-05  9.0852e-06  0:03:29 1376
[...]
  1838  2.8836e-08  7.6690e-08  4.9328e-08  3.7958e-07  2.8272e-08  1.1742e-08  5.9258e-09  0:00:31  162
  1839  2.8656e-08  7.6216e-08  4.9017e-08  3.7725e-07  2.8095e-08  1.1675e-08  5.8910e-09  0:00:24  161
  1840  2.8477e-08  7.5746e-08  4.8708e-08  3.7493e-07  2.7920e-08  1.1608e-08  5.8564e-09  0:00:19  160
  1841  2.8300e-08  7.5279e-08  4.8401e-08  3.7263e-07  2.7746e-08  1.1542e-08  5.8221e-09  0:00:15  159
  1842  2.8124e-08  7.4814e-08  4.8096e-08  3.7034e-07  2.7574e-08  1.1476e-08  5.7879e-09  0:00:44  158
  1843  2.7949e-08  7.4353e-08  4.7793e-08  3.6808e-07  2.7402e-08  1.1411e-08  5.7540e-09  0:00:35  157
  1844  2.7775e-08  7.3894e-08  4.7492e-08  3.6582e-07  2.7232e-08  1.1346e-08  5.7202e-09  0:00:28  156
  1845  2.7602e-08  7.3438e-08  4.7194e-08  3.6358e-07  2.7063e-08  1.1281e-08  5.6867e-09  0:00:22  155
  1846  2.7431e-08  7.2985e-08  4.6897e-08  3.6135e-07  2.6894e-08  1.1217e-08  5.6533e-09  0:00:17  154
  1847  2.7260e-08  7.2535e-08  4.6603e-08  3.5914e-07  2.6728e-08  1.1153e-08  5.6202e-09  0:00:14  153
  1848  2.7091e-08  7.2088e-08  4.6310e-08  3.5694e-07  2.6562e-08  1.1089e-08  5.5872e-09  0:00:41  152

  iter  continuity  x-velocity  y-velocity  z-velocity      energy           k       omega     time/iter
  1849  2.6923e-08  7.1643e-08  4.6020e-08  3.5475e-07  2.6397e-08  1.1026e-08  5.5544e-09  0:00:33  151
  1850  2.6756e-08  7.1201e-08  4.5731e-08  3.5258e-07  2.6234e-08  1.0964e-08  5.5218e-09  0:00:26  150
  1851  2.6591e-08  7.0762e-08  4.5445e-08  3.5042e-07  2.6071e-08  1.0901e-08  5.4894e-09  0:00:21  149
  1852  2.6426e-08  7.0326e-08  4.5160e-08  3.4827e-07  2.5910e-08  1.0839e-08  5.4572e-09  0:00:17  148
  1853  2.6263e-08  6.9892e-08  4.4878e-08  3.4613e-07  2.5750e-08  1.0777e-08  5.4252e-09  0:00:43  147
  1854  2.6100e-08  6.9461e-08  4.4597e-08  3.4400e-07  2.5591e-08  1.0716e-08  5.3934e-09  0:00:34  146
  1855  2.5939e-08  6.9033e-08  4.4319e-08  3.4190e-07  2.5432e-08  1.0655e-08  5.3617e-09  0:00:27  145
  1856  2.5779e-08  6.8607e-08  4.4042e-08  3.3980e-07  2.5275e-08  1.0594e-08  5.3302e-09  0:00:21  144
  1857  2.5620e-08  6.8184e-08  4.3767e-08  3.3772e-07  2.5120e-08  1.0534e-08  5.2989e-09  0:00:17  143
  1858  2.5462e-08  6.7764e-08  4.3494e-08  3.3566e-07  2.4965e-08  1.0474e-08  5.2678e-09  0:00:42  142
  1859  2.5305e-08  6.7346e-08  4.3223e-08  3.3360e-07  2.4811e-08  1.0414e-08  5.2369e-09  0:00:33  141

  iter  continuity  x-velocity  y-velocity  z-velocity      energy           k       omega     time/iter
  1860  2.5149e-08  6.6931e-08  4.2954e-08  3.3156e-07  2.4658e-08  1.0355e-08  5.2061e-09  0:00:26  140
  1861  2.4994e-08  6.6518e-08  4.2687e-08  3.2954e-07  2.4506e-08  1.0296e-08  5.1755e-09  0:00:21  139
  1862  2.4840e-08  6.6108e-08  4.2421e-08  3.2753e-07  2.4355e-08  1.0238e-08  5.1451e-09  0:00:44  138
  1863  2.4687e-08  6.5700e-08  4.2158e-08  3.2554e-07  2.4206e-08  1.0179e-08  5.1148e-09  0:00:35  137
  1864  2.4536e-08  6.5295e-08  4.1896e-08  3.2356e-07  2.4057e-08  1.0121e-08  5.0847e-09  0:00:28  136
  1865  2.4385e-08  6.4893e-08  4.1636e-08  3.2159e-07  2.3909e-08  1.0063e-08  5.0548e-09  0:00:22  135
  1866  2.4235e-08  6.4493e-08  4.1377e-08  3.1964e-07  2.3762e-08  1.0006e-08  5.0251e-09  0:00:18  134
  1867  2.4086e-08  6.4095e-08  4.1121e-08  3.1770e-07  2.3617e-08  9.9490e-09  4.9955e-09  0:00:41  133
  1868  2.3939e-08  6.3700e-08  4.0866e-08  3.1578e-07  2.3472e-08  9.8923e-09  4.9661e-09  0:00:32  132
  1869  2.3792e-08  6.3307e-08  4.0613e-08  3.1387e-07  2.3328e-08  9.8358e-09  4.9368e-09  0:00:26  131
  1870  2.3646e-08  6.2917e-08  4.0361e-08  3.1197e-07  2.3185e-08  9.7797e-09  4.9078e-09  0:00:20  130

  iter  continuity  x-velocity  y-velocity  z-velocity      energy           k       omega     time/iter
  1871  2.3501e-08  6.2529e-08  4.0112e-08  3.1008e-07  2.3043e-08  9.7238e-09  4.8788e-09  0:00:16  129
  1872  2.3357e-08  6.2144e-08  3.9864e-08  3.0821e-07  2.2902e-08  9.6683e-09  4.8501e-09  0:00:38  128
  1873  2.3214e-08  6.1761e-08  3.9617e-08  3.0635e-07  2.2762e-08  9.6130e-09  4.8214e-09  0:00:30  127
  1874  2.3072e-08  6.1380e-08  3.9373e-08  3.0450e-07  2.2622e-08  9.5581e-09  4.7930e-09  0:00:24  126
  1875  2.2931e-08  6.1001e-08  3.9130e-08  3.0266e-07  2.2484e-08  9.5034e-09  4.7647e-09  0:00:19  125
  1876  2.2791e-08  6.0625e-08  3.8888e-08  3.0084e-07  2.2347e-08  9.4490e-09  4.7366e-09  0:00:15  124
  1877  2.2652e-08  6.0252e-08  3.8649e-08  2.9902e-07  2.2210e-08  9.3949e-09  4.7086e-09  0:00:37  123
  1878  2.2514e-08  5.9880e-08  3.8410e-08  2.9723e-07  2.2075e-08  9.3411e-09  4.6808e-09  0:00:29  122
  1879  2.2376e-08  5.9511e-08  3.8174e-08  2.9544e-07  2.1940e-08  9.2876e-09  4.6531e-09  0:00:23  121
  1880  2.2240e-08  5.9144e-08  3.7939e-08  2.9366e-07  2.1806e-08  9.2344e-09  4.6256e-09  0:00:18  120
  1881  2.2104e-08  5.8780e-08  3.7706e-08  2.9190e-07  2.1673e-08  9.1814e-09  4.5982e-09  0:00:15  119

  iter  continuity  x-velocity  y-velocity  z-velocity      energy           k       omega     time/iter
  1882  2.1969e-08  5.8417e-08  3.7474e-08  2.9014e-07  2.1541e-08  9.1287e-09  4.5710e-09  0:00:35  118
  1883  2.1835e-08  5.8057e-08  3.7243e-08  2.8841e-07  2.1410e-08  9.0763e-09  4.5439e-09  0:00:28  117
  1884  2.1703e-08  5.7699e-08  3.7015e-08  2.8668e-07  2.1280e-08  9.0242e-09  4.5170e-09  0:00:22  116
  1885  2.1570e-08  5.7343e-08  3.6788e-08  2.8496e-07  2.1150e-08  8.9723e-09  4.4902e-09  0:00:18  115
  1886  2.1439e-08  5.6990e-08  3.6562e-08  2.8327e-07  2.1021e-08  8.9207e-09  4.4636e-09  0:00:14  114
  1887  2.1309e-08  5.6638e-08  3.6338e-08  2.8158e-07  2.0894e-08  8.8693e-09  4.4371e-09  0:00:11  113
  1888  2.1179e-08  5.6289e-08  3.6115e-08  2.7990e-07  2.0767e-08  8.8183e-09  4.4107e-09  0:00:31  112
  1889  2.1050e-08  5.5942e-08  3.5894e-08  2.7824e-07  2.0640e-08  8.7674e-09  4.3845e-09  0:00:25  111
  1890  2.0923e-08  5.5597e-08  3.5674e-08  2.7660e-07  2.0515e-08  8.7169e-09  4.3585e-09  0:00:20  110
  1891  2.0795e-08  5.5254e-08  3.5455e-08  2.7497e-07  2.0390e-08  8.6666e-09  4.3325e-09  0:00:16  109
  1892  2.0669e-08  5.4913e-08  3.5239e-08  2.7337e-07  2.0267e-08  8.6165e-09  4.3068e-09  0:00:12  108

  iter  continuity  x-velocity  y-velocity  z-velocity      energy           k       omega     time/iter
  1893  2.0544e-08  5.4575e-08  3.5023e-08  2.7178e-07  2.0144e-08  8.5667e-09  4.2811e-09  0:00:31  107
  1894  2.0419e-08  5.4238e-08  3.4809e-08  2.7019e-07  2.0022e-08  8.5172e-09  4.2556e-09  0:00:25  106
  1895  2.0295e-08  5.3904e-08  3.4596e-08  2.6863e-07  1.9900e-08  8.4679e-09  4.2303e-09  0:00:20  105
  1896  2.0172e-08  5.3571e-08  3.4385e-08  2.6707e-07  1.9780e-08  8.4189e-09  4.2050e-09  0:00:16  104
  1897  2.0050e-08  5.3241e-08  3.4175e-08  2.6554e-07  1.9660e-08  8.3701e-09  4.1799e-09  0:00:12  103
  1898  1.9929e-08  5.2912e-08  3.3967e-08  2.6401e-07  1.9541e-08  8.3215e-09  4.1550e-09  0:00:30  102
  1899  1.9808e-08  5.2586e-08  3.3760e-08  2.6249e-07  1.9422e-08  8.2732e-09  4.1302e-09  0:00:24  101
  1900  1.9688e-08  5.2261e-08  3.3554e-08  2.6098e-07  1.9305e-08  8.2252e-09  4.1055e-09  0:00:19  100
  1901  1.9569e-08  5.1939e-08  3.3350e-08  2.5949e-07  1.9188e-08  8.1773e-09  4.0809e-09  0:00:15   99
  1902  1.9450e-08  5.1618e-08  3.3146e-08  2.5800e-07  1.9072e-08  8.1297e-09  4.0565e-09  0:00:12   98
  1903  1.9333e-08  5.1300e-08  3.2945e-08  2.5652e-07  1.8957e-08  8.0824e-09  4.0322e-09  0:00:29   97

  iter  continuity  x-velocity  y-velocity  z-velocity      energy           k       omega     time/iter
  1904  1.9216e-08  5.0983e-08  3.2744e-08  2.5506e-07  1.8842e-08  8.0353e-09  4.0081e-09  0:00:23   96
  1905  1.9100e-08  5.0669e-08  3.2545e-08  2.5360e-07  1.8728e-08  7.9884e-09  3.9840e-09  0:00:18   95
  1906  1.8984e-08  5.0356e-08  3.2347e-08  2.5214e-07  1.8615e-08  7.9418e-09  3.9601e-09  0:00:14   94
  1907  1.8870e-08  5.0045e-08  3.2151e-08  2.5069e-07  1.8502e-08  7.8954e-09  3.9364e-09  0:00:11   93
  1908  1.8756e-08  4.9736e-08  3.1955e-08  2.4925e-07  1.8391e-08  7.8492e-09  3.9127e-09  0:00:27   92
  1909  1.8642e-08  4.9429e-08  3.1761e-08  2.4782e-07  1.8280e-08  7.8032e-09  3.8892e-09  0:00:22   91
  1910  1.8530e-08  4.9124e-08  3.1568e-08  2.4639e-07  1.8169e-08  7.7575e-09  3.8658e-09  0:00:17   90
  1911  1.8418e-08  4.8821e-08  3.1377e-08  2.4497e-07  1.8060e-08  7.7120e-09  3.8426e-09  0:00:14   89
  1912  1.8307e-08  4.8520e-08  3.1186e-08  2.4356e-07  1.7951e-08  7.6667e-09  3.8194e-09  0:00:11   88
  1913  1.8196e-08  4.8220e-08  3.0997e-08  2.4216e-07  1.7842e-08  7.6217e-09  3.7964e-09  0:00:26   87
  1914  1.8087e-08  4.7922e-08  3.0809e-08  2.4076e-07  1.7735e-08  7.5768e-09  3.7736e-09  0:00:20   86

  iter  continuity  x-velocity  y-velocity  z-velocity      energy           k       omega     time/iter
  1915  1.7978e-08  4.7627e-08  3.0623e-08  2.3937e-07  1.7628e-08  7.5322e-09  3.7508e-09  0:00:16   85
  1916  1.7869e-08  4.7333e-08  3.0437e-08  2.3799e-07  1.7522e-08  7.4879e-09  3.7282e-09  0:00:13   84
  1917  1.7761e-08  4.7040e-08  3.0253e-08  2.3661e-07  1.7416e-08  7.4437e-09  3.7057e-09  0:00:10   83
  1918  1.7654e-08  4.6750e-08  3.0070e-08  2.3524e-07  1.7311e-08  7.3997e-09  3.6833e-09  0:00:24   82
  1919  1.7548e-08  4.6461e-08  2.9888e-08  2.3388e-07  1.7207e-08  7.3560e-09  3.6610e-09  0:00:19   81
  1920  1.7442e-08  4.6174e-08  2.9707e-08  2.3253e-07  1.7103e-08  7.3125e-09  3.6389e-09  0:00:15   80
  1921  1.7337e-08  4.5889e-08  2.9527e-08  2.3119e-07  1.7000e-08  7.2692e-09  3.6168e-09  0:00:12   79
  1922  1.7233e-08  4.5606e-08  2.9349e-08  2.2987e-07  1.6898e-08  7.2261e-09  3.5949e-09  0:00:10   78
  1923  1.7129e-08  4.5324e-08  2.9171e-08  2.2854e-07  1.6796e-08  7.1832e-09  3.5731e-09  0:00:23   77
  1924  1.7026e-08  4.5044e-08  2.8995e-08  2.2723e-07  1.6695e-08  7.1406e-09  3.5514e-09  0:00:18   76
  1925  1.6923e-08  4.4766e-08  2.8820e-08  2.2592e-07  1.6594e-08  7.0981e-09  3.5299e-09  0:00:14   75

  iter  continuity  x-velocity  y-velocity  z-velocity      energy           k       omega     time/iter
  1926  1.6821e-08  4.4489e-08  2.8646e-08  2.2463e-07  1.6494e-08  7.0559e-09  3.5084e-09  0:00:11   74
  1927  1.6720e-08  4.4214e-08  2.8473e-08  2.2334e-07  1.6395e-08  7.0139e-09  3.4871e-09  0:00:09   73
  1928  1.6619e-08  4.3941e-08  2.8301e-08  2.2207e-07  1.6296e-08  6.9720e-09  3.4659e-09  0:00:21   72
  1929  1.6519e-08  4.3669e-08  2.8130e-08  2.2080e-07  1.6198e-08  6.9304e-09  3.4448e-09  0:00:17   71
  1930  1.6420e-08  4.3400e-08  2.7960e-08  2.1954e-07  1.6101e-08  6.8890e-09  3.4238e-09  0:00:13   70
  1931  1.6321e-08  4.3131e-08  2.7792e-08  2.1829e-07  1.6004e-08  6.8478e-09  3.4030e-09  0:00:11   69
  1932  1.6223e-08  4.2865e-08  2.7624e-08  2.1704e-07  1.5907e-08  6.8068e-09  3.3822e-09  0:00:08   68
  1933  1.6125e-08  4.2600e-08  2.7457e-08  2.1581e-07  1.5812e-08  6.7660e-09  3.3616e-09  0:00:20   67
  1934  1.6028e-08  4.2336e-08  2.7292e-08  2.1458e-07  1.5717e-08  6.7254e-09  3.3410e-09  0:00:16   66
  1935  1.5932e-08  4.2075e-08  2.7127e-08  2.1336e-07  1.5622e-08  6.6851e-09  3.3206e-09  0:00:12   65
  1936  1.5836e-08  4.1815e-08  2.6964e-08  2.1214e-07  1.5528e-08  6.6449e-09  3.3003e-09  0:00:10   64

  iter  continuity  x-velocity  y-velocity  z-velocity      energy           k       omega     time/iter
  1937  1.5740e-08  4.1556e-08  2.6801e-08  2.1094e-07  1.5434e-08  6.6049e-09  3.2801e-09  0:00:08   63
  1938  1.5646e-08  4.1299e-08  2.6640e-08  2.0974e-07  1.5342e-08  6.5651e-09  3.2600e-09  0:00:18   62
  1939  1.5552e-08  4.1044e-08  2.6479e-08  2.0854e-07  1.5249e-08  6.5255e-09  3.2401e-09  0:00:15   61
  1940  1.5458e-08  4.0790e-08  2.6320e-08  2.0737e-07  1.5157e-08  6.4861e-09  3.2202e-09  0:00:11   60
  1941  1.5365e-08  4.0538e-08  2.6161e-08  2.0619e-07  1.5066e-08  6.4469e-09  3.2004e-09  0:00:09   59
  1942  1.5272e-08  4.0287e-08  2.6004e-08  2.0501e-07  1.4976e-08  6.4079e-09  3.1808e-09  0:00:07   58
  1943  1.5180e-08  4.0038e-08  2.5847e-08  2.0385e-07  1.4885e-08  6.3691e-09  3.1612e-09  0:00:17   57
  1944  1.5089e-08  3.9790e-08  2.5691e-08  2.0268e-07  1.4796e-08  6.3305e-09  3.1418e-09  0:00:13   56
  1945  1.4998e-08  3.9544e-08  2.5537e-08  2.0154e-07  1.4707e-08  6.2921e-09  3.1225e-09  0:00:10   55
  1946  1.4908e-08  3.9299e-08  2.5383e-08  2.0039e-07  1.4618e-08  6.2539e-09  3.1032e-09  0:00:08   54
  1947  1.4818e-08  3.9056e-08  2.5230e-08  1.9925e-07  1.4530e-08  6.2159e-09  3.0841e-09  0:00:06   53

  iter  continuity  x-velocity  y-velocity  z-velocity      energy           k       omega     time/iter
  1948  1.4729e-08  3.8814e-08  2.5078e-08  1.9811e-07  1.4443e-08  6.1781e-09  3.0651e-09  0:00:15   52
  1949  1.4640e-08  3.8574e-08  2.4927e-08  1.9699e-07  1.4356e-08  6.1404e-09  3.0462e-09  0:00:12   51
  1950  1.4552e-08  3.8336e-08  2.4777e-08  1.9588e-07  1.4269e-08  6.1030e-09  3.0274e-09  0:00:10   50
  1951  1.4464e-08  3.8098e-08  2.4628e-08  1.9476e-07  1.4183e-08  6.0657e-09  3.0087e-09  0:00:07   49
  1952  1.4377e-08  3.7862e-08  2.4480e-08  1.9365e-07  1.4098e-08  6.0287e-09  2.9901e-09  0:00:06   48
  1953  1.4291e-08  3.7628e-08  2.4333e-08  1.9254e-07  1.4013e-08  5.9918e-09  2.9716e-09  0:00:14   47
  1954  1.4204e-08  3.7395e-08  2.4186e-08  1.9144e-07  1.3928e-08  5.9551e-09  2.9532e-09  0:00:11   46
  1955  1.4119e-08  3.7164e-08  2.4041e-08  1.9034e-07  1.3844e-08  5.9186e-09  2.9349e-09  0:00:09   45
  1956  1.4034e-08  3.6934e-08  2.3896e-08  1.8925e-07  1.3761e-08  5.8823e-09  2.9167e-09  0:00:07   44
  1957  1.3949e-08  3.6705e-08  2.3752e-08  1.8816e-07  1.3678e-08  5.8462e-09  2.8986e-09  0:00:05   43
  1958  1.3865e-08  3.6478e-08  2.3609e-08  1.8707e-07  1.3596e-08  5.8102e-09  2.8806e-09  0:00:12   42

  iter  continuity  x-velocity  y-velocity  z-velocity      energy           k       omega     time/iter
  1959  1.3781e-08  3.6252e-08  2.3467e-08  1.8598e-07  1.3514e-08  5.7745e-09  2.8627e-09  0:00:10   41
  1960  1.3698e-08  3.6027e-08  2.3326e-08  1.8490e-07  1.3432e-08  5.7389e-09  2.8450e-09  0:00:08   40
  1961  1.3616e-08  3.5804e-08  2.3185e-08  1.8381e-07  1.3351e-08  5.7035e-09  2.8273e-09  0:00:06   39
  1962  1.3534e-08  3.5582e-08  2.3046e-08  1.8273e-07  1.3271e-08  5.6683e-09  2.8097e-09  0:00:05   38
  1963  1.3452e-08  3.5362e-08  2.2907e-08  1.8165e-07  1.3190e-08  5.6333e-09  2.7922e-09  0:00:04   37
  1964  1.3371e-08  3.5143e-08  2.2769e-08  1.8058e-07  1.3111e-08  5.5985e-09  2.7748e-09  0:00:10   36
  1965  1.3290e-08  3.4925e-08  2.2632e-08  1.7950e-07  1.3032e-08  5.5639e-09  2.7575e-09  0:00:08   35
  1966  1.3210e-08  3.4708e-08  2.2496e-08  1.7843e-07  1.2953e-08  5.5294e-09  2.7403e-09  0:00:06   34
  1967  1.3130e-08  3.4493e-08  2.2360e-08  1.7736e-07  1.2875e-08  5.4951e-09  2.7232e-09  0:00:05   33
  1968  1.3051e-08  3.4280e-08  2.2225e-08  1.7630e-07  1.2797e-08  5.4610e-09  2.7062e-09  0:00:04   32
  1969  1.2972e-08  3.4067e-08  2.2092e-08  1.7524e-07  1.2720e-08  5.4271e-09  2.6893e-09  0:00:09   31

  iter  continuity  x-velocity  y-velocity  z-velocity      energy           k       omega     time/iter
  1970  1.2894e-08  3.3856e-08  2.1959e-08  1.7417e-07  1.2643e-08  5.3934e-09  2.6725e-09  0:00:07   30
  1971  1.2816e-08  3.3646e-08  2.1826e-08  1.7312e-07  1.2567e-08  5.3598e-09  2.6558e-09  0:00:05   29
  1972  1.2738e-08  3.3437e-08  2.1695e-08  1.7207e-07  1.2491e-08  5.3264e-09  2.6392e-09  0:00:04   28
  1973  1.2661e-08  3.3230e-08  2.1564e-08  1.7104e-07  1.2415e-08  5.2932e-09  2.6226e-09  0:00:09   27
  1974  1.2585e-08  3.3024e-08  2.1434e-08  1.7000e-07  1.2340e-08  5.2602e-09  2.6062e-09  0:00:07   26
  1975  1.2509e-08  3.2819e-08  2.1305e-08  1.6899e-07  1.2265e-08  5.2274e-09  2.5899e-09  0:00:05   25
  1976  1.2433e-08  3.2616e-08  2.1176e-08  1.6797e-07  1.2191e-08  5.1947e-09  2.5736e-09  0:00:04   24
  1977  1.2358e-08  3.2414e-08  2.1049e-08  1.6697e-07  1.2117e-08  5.1622e-09  2.5575e-09  0:00:08   23
  1978  1.2283e-08  3.2213e-08  2.0922e-08  1.6597e-07  1.2044e-08  5.1299e-09  2.5414e-09  0:00:06   22
  1979  1.2209e-08  3.2013e-08  2.0796e-08  1.6498e-07  1.1971e-08  5.0978e-09  2.5255e-09  0:00:04   21
  1980  1.2135e-08  3.1814e-08  2.0670e-08  1.6400e-07  1.1899e-08  5.0658e-09  2.5096e-09  0:00:03   20

  iter  continuity  x-velocity  y-velocity  z-velocity      energy           k       omega     time/iter
  1981  1.2061e-08  3.1617e-08  2.0546e-08  1.6303e-07  1.1827e-08  5.0340e-09  2.4938e-09  0:00:03   19
  1982  1.1988e-08  3.1421e-08  2.0422e-08  1.6207e-07  1.1755e-08  5.0024e-09  2.4781e-09  0:00:06   18
  1983  1.1915e-08  3.1226e-08  2.0298e-08  1.6112e-07  1.1684e-08  4.9710e-09  2.4625e-09  0:00:04   17
  1984  1.1843e-08  3.1032e-08  2.0176e-08  1.6017e-07  1.1613e-08  4.9397e-09  2.4470e-09  0:00:03   16
  1985  1.1771e-08  3.0839e-08  2.0054e-08  1.5924e-07  1.1542e-08  4.9086e-09  2.4316e-09  0:00:02   15
  1986  1.1700e-08  3.0648e-08  1.9933e-08  1.5830e-07  1.1472e-08  4.8777e-09  2.4163e-09  0:00:02   14
  1987  1.1629e-08  3.0458e-08  1.9813e-08  1.5738e-07  1.1403e-08  4.8469e-09  2.4010e-09  0:00:01   13
  1988  1.1558e-08  3.0269e-08  1.9693e-08  1.5647e-07  1.1334e-08  4.8163e-09  2.3859e-09  0:00:03   12
  1989  1.1488e-08  3.0081e-08  1.9574e-08  1.5556e-07  1.1265e-08  4.7859e-09  2.3708e-09  0:00:02   11
  1990  1.1418e-08  2.9894e-08  1.9456e-08  1.5465e-07  1.1196e-08  4.7557e-09  2.3558e-09  0:00:02   10
  1991  1.1349e-08  2.9709e-08  1.9338e-08  1.5376e-07  1.1128e-08  4.7256e-09  2.3410e-09  0:00:01    9

  iter  continuity  x-velocity  y-velocity  z-velocity      energy           k       omega     time/iter
  1992  1.1280e-08  2.9524e-08  1.9221e-08  1.5285e-07  1.1061e-08  4.6957e-09  2.3262e-09  0:00:01    8
  1993  1.1212e-08  2.9341e-08  1.9105e-08  1.5195e-07  1.0994e-08  4.6659e-09  2.3114e-09  0:00:02    7
  1994  1.1143e-08  2.9159e-08  1.8989e-08  1.5106e-07  1.0927e-08  4.6363e-09  2.2968e-09  0:00:01    6
  1995  1.1076e-08  2.8978e-08  1.8874e-08  1.5018e-07  1.0860e-08  4.6069e-09  2.2823e-09  0:00:01    5
  1996  1.1008e-08  2.8798e-08  1.8760e-08  1.4929e-07  1.0794e-08  4.5777e-09  2.2678e-09  0:00:01    4
  1997  1.0941e-08  2.8619e-08  1.8647e-08  1.4841e-07  1.0728e-08  4.5486e-09  2.2535e-09  0:00:00    3
  1998  1.0875e-08  2.8441e-08  1.8534e-08  1.4754e-07  1.0663e-08  4.5197e-09  2.2392e-09  0:00:01    2
  1999  1.0808e-08  2.8264e-08  1.8421e-08  1.4667e-07  1.0598e-08  4.4909e-09  2.2250e-09  0:00:00    1
  2000  1.0743e-08  2.8089e-08  1.8310e-08  1.4579e-07  1.0534e-08  4.4623e-09  2.2109e-09  0:00:00    0

> 
adjoint/                parallel/               server/
define/                 parametric-study/       solve/
display/                plot/                   surface/
exit                    preferences/            turbo-workflow/
file/                   print-license-usage     views/
mesh/                   report/

> /file/write-case-data project1
Fast-loading "C:\PROGRA~1\ANSYSI~1\v231\fluent\fluent23.1.0\\addons\afd\lib\hdfio.bin"
Done.

Writing to Engs-30669:"C:\Users\kebl7595\Desktop\CFD\Runs\Viscous\9 degrees\project1.cas.h5" in NODE0 mode and compression level 1 ...
       12996 cells,     1 zone  ...
       43722 faces,     8 zones ...
       17864 nodes,     1 zone  ...
  Done.
Done.

Writing to Engs-30669:"C:\Users\kebl7595\Desktop\CFD\Runs\Viscous\9 degrees\project1.dat.h5" in NODE0 mode and compression level 1 ...
  Writing results.
Done.

> /file/export/ascii "./surface.dat" wing te () no pressure mach-number quit no

Writing "./surface.dat"...

Writing information to ascii file ...
Done.


> /report/forces/wall-forces y -0.15643 0.98769 0 y "Lift"

> /report/forces/wall-forces y 0.98769 0.15643 0 y "Drag"

> /exit

Posting ANSYS Product Improvement Program performance data 
Done.
Auto-Transcript Stop Time:  10:47:34, 21 May 2024 GMT Daylight Time 
Total Transcript Time: 5 Minute 4 Second.
