Auto-Transcript Start Time:  10:26:40, 22 May 2024 GMT Daylight Time 
Current Directory: "C:\Users\kebl7595\Desktop\CFD\Runs\Flap\no flap test"

              Welcome to ANSYS Fluent 2023 R1

              Copyright 1987-2023 ANSYS, Inc. All Rights Reserved.
              Unauthorized use, distribution or duplication is prohibited.
              This product is subject to U.S. laws governing export and re-export.
              For full Legal Notice, see documentation.

Build Time: Nov 28 2022 09:52:02 EST  Build Id: 10208  
 
Connected License Server List:	1055@ansyslic.eng.ox.ac.uk

*********************************************
Info: Your license enables 4-way parallel execution.
For faster simulations, please start the application with the appropriate parallel options.
*********************************************


     --------------------------------------------------------------
     This is an academic version of ANSYS FLUENT. Usage of this product
     license is limited to the terms and conditions specified in your ANSYS
     license form, additional terms section.
     --------------------------------------------------------------
Host spawning Node 0 on machine "Engs-30669" (win64).

------------------------------------------------------------------------------------
ID    Hostname    Core  O.S.         PID    Vendor                                 
------------------------------------------------------------------------------------
n0    Engs-30669  1/32  Windows-x64  40080  13th Gen Intel(R) Core(TM) i9-13900    
host  Engs-30669        Windows-x64  50252  13th Gen Intel(R) Core(TM) i9-13900    

MPI Option Selected: intel
------------------------------------------------------------------------------------

Cleanup script file is C:\\Users\\kebl7595\\Desktop\\CFD\\Runs\\Flap\\no flap test\\cleanup-fluent-Engs-30669-50252.bat

Posting ANSYS Product Improvement Program startup data
Done.
Fast-loading "C:\PROGRA~1\ANSYSI~1\v231\fluent\fluent23.1.0\\addons\afd\lib\hdfio.bin"
Done.

Engs-30669 has other FLUENT parallel processes running.                       Process affinity not being set.

Reading from Engs-30669:"C:/Users/kebl7595/Desktop/CFD/Runs/Flap/no flap test/project1.cas.h5" in NODE0 mode ...
  Reading mesh ...
       12996 cells,     1 cell zone  ...
          12996 hexahedral cells,  zone id: 1
       43722 faces,     8 face zones ...
           4332 quadrilateral symmetry faces,  zone id: 2
            228 quadrilateral pressure-far-field faces,  zone id: 10
           4332 quadrilateral symmetry faces,  zone id: 9
            342 quadrilateral pressure-far-field faces,  zone id: 8
            228 quadrilateral wall faces,  zone id: 7
          33972 quadrilateral interior faces,  zone id: 3
            282 quadrilateral interior faces,  zone id: 4
              6 quadrilateral wall faces,  zone id: 5
       17864 nodes,     1 node zone  ...
  Done.


Building...
     mesh
     materials,
     interface,
     domains,
	mixture
     zones,
	te
	interface-default_subface
	default_interior-1
	wing
	far1
	far2
	sym1
	sym2
	default
     parallel,
Done.

Reading from Engs-30669:"C:/Users/kebl7595/Desktop/CFD/Runs/Flap/no flap test/project1.dat.h5" in NODE0 mode ...


  Reading results.
Parallel variables...
Done.

> (cx-gui-do cx-set-list-tree-selections "NavigationPane*Frame2*Table1*List_Tree2" (list "Results|Graphics|Pathlines"))
(cx-gui-do cx-set-list-tree-selections "NavigationPane*Frame2*Table1*List_Tree2" (list "Results|Graphics|Pathlines"))
(cx-gui-do cx-activate-item "NavigationPane*Frame2*Table1*List_Tree2")
(cx-gui-do cx-set-list-tree-selections "NavigationPane*Frame2*Table1*List_Tree2" (list "Results|Graphics|Pathlines"))
(cx-gui-do cx-set-list-selections "Pathlines*Frame4*List3(Release from Surfaces)" '( 4))
(cx-gui-do cx-activate-item "Pathlines*Frame4*List3(Release from Surfaces)")
(cx-gui-do cx-set-list-selections "Pathlines*Frame4*List3(Release from Surfaces)" '( 3 4))
(cx-gui-do cx-activate-item "Pathlines*Frame4*List3(Release from Surfaces)")
(cx-gui-do cx-set-list-selections "Pathlines*Frame4*List3(Release from Surfaces)" '( 3))
(cx-gui-do cx-activate-item "Pathlines*Frame4*List3(Release from Surfaces)")
(cx-gui-do cx-activate-item "Pathlines*PanelButtons*PushButton1(OK)")

number tracked = 4332, escaped = 4309, incomplete = 23
(cx-gui-do cx-activate-item "Pathlines*PanelButtons*PushButton2(Cancel)")
(cx-use-window-id 51)
(cx-gui-do cx-activate-item "ToolBar*Pointer*translate")
(cx-use-window-id 51)
(dolly-camera 0.645747 0.0318034 0)
(cx-use-window-id 51)
(dolly-camera 0.0109916 0.0031802 0)
(cx-use-window-id 51)
(dolly-camera 0.134645 0.00318038 0)
(cx-use-window-id 51)
(dolly-camera 0.120193 0.0176088 0)
(cx-use-window-id 51)
(dolly-camera -0.155756 -0.0346672 0)
(cx-use-window-id 51)
(dolly-camera 0.0494226 0.0520006 0)
(cx-use-window-id 51)
(dolly-camera -0.0537318 -0.0879731 0)
(cx-use-window-id 51)
(dolly-camera 0.0309578 0.0375358 0)
(cx-use-window-id 51)

Probe position = (-0.33806884 -0.16312411 3.7303442e-05)
(cx-use-window-id 51)
(cx-use-window-id 51)
(dolly-camera 0 0 0)
(cx-use-window-id 51)

Probe position = (-1.2184545 -1.012798 3.7303442e-05)
(cx-use-window-id 51)
(cx-use-window-id 51)
(dolly-camera 0 0 0)
(cx-use-window-id 51)

Probe position = (-0.91475546 -0.72957343 3.7303442e-05)
(cx-use-window-id 51)
(cx-use-window-id 51)
(cx-use-window-id 51)
(cx-use-window-id 51)
(cx-gui-do cx-activate-item "ToolBar*Copy*copytoclipboard")
Copied screenshot of active window to clipboard
(cx-gui-do cx-activate-item "ToolBar*Copy*savepicture")
(cx-gui-do cx-activate-item "Save Picture*PanelButtons*PushButton1(OK)")
(cx-gui-do cx-set-file-dialog-entries "Select File" '( "C:/Users/kebl7595/Desktop/CFD/Results/Flap Graphs/20 degreees no flap.png") "Hardcopy Files (*.png)")
(cx-gui-do cx-activate-item "Save Picture*PanelButtons*PushButton2(Cancel)")
/exit y

Posting ANSYS Product Improvement Program performance data 
Done.
(cx-gui-do cx-activate-item "Question*OK")
Auto-Transcript Stop Time:  10:44:12, 22 May 2024 GMT Daylight Time 
Total Transcript Time: 17 Minute 32 Second.
