Auto-Transcript Start Time:  13:05:20, 22 May 2024 GMT Daylight Time 
Current Directory: "C:\Users\kebl7595\Desktop\CFD\Runs\Flap\Re 3e5\Standard Flap\flap test -20 degree"

              Welcome to ANSYS Fluent 2023 R1

              Copyright 1987-2023 ANSYS, Inc. All Rights Reserved.
              Unauthorized use, distribution or duplication is prohibited.
              This product is subject to U.S. laws governing export and re-export.
              For full Legal Notice, see documentation.

Build Time: Nov 28 2022 09:52:02 EST  Build Id: 10208  
 
Connected License Server List:	1055@ansyslic.eng.ox.ac.uk

*********************************************
Info: Your license enables 4-way parallel execution.
For faster simulations, please start the application with the appropriate parallel options.
*********************************************


     --------------------------------------------------------------
     This is an academic version of ANSYS FLUENT. Usage of this product
     license is limited to the terms and conditions specified in your ANSYS
     license form, additional terms section.
     --------------------------------------------------------------
Host spawning Node 0 on machine "Engs-30669" (win64).

------------------------------------------------------------------------------------
ID    Hostname    Core  O.S.         PID    Vendor                                 
------------------------------------------------------------------------------------
n0    Engs-30669  1/32  Windows-x64  38592  13th Gen Intel(R) Core(TM) i9-13900    
host  Engs-30669        Windows-x64  24420  13th Gen Intel(R) Core(TM) i9-13900    

MPI Option Selected: intel
------------------------------------------------------------------------------------

Cleanup script file is C:\\Users\\kebl7595\\Desktop\\CFD\\Runs\\Flap\\Re 3e5\\Standard Flap\\flap test -20 degree\\cleanup-fluent-Engs-30669-24420.bat

Posting ANSYS Product Improvement Program startup data
Done.
Fast-loading "C:\PROGRA~1\ANSYSI~1\v231\fluent\fluent23.1.0\\addons\afd\lib\hdfio.bin"
Done.
Note: Rank = 0: Process affinity not being set (6).

Reading from Engs-30669:"C:/Users/kebl7595/Desktop/CFD/Runs/Flap/Re 3e5/Standard Flap/flap test -20 degree/project1.cas.h5" in NODE0 mode ...
  Reading mesh ...
       24072 cells,     1 cell zone  ...
          24072 hexahedral cells,  zone id: 1
       80918 faces,     7 face zones ...
           8024 quadrilateral symmetry faces,  zone id: 2
            297 quadrilateral pressure-far-field faces,  zone id: 9
           8024 quadrilateral symmetry faces,  zone id: 8
            618 quadrilateral pressure-far-field faces,  zone id: 7
            441 quadrilateral wall faces,  zone id: 6
          63040 quadrilateral interior faces,  zone id: 3
            474 quadrilateral interior faces,  zone id: 4
       33000 nodes,     1 node zone  ...
  Done.


Building...
     mesh
     materials,
     interface,
     domains,
	mixture
     zones,
	interface-default_subface
	default_interior-1
	wing
	far1
	far2
	sym1
	sym2
	default
     parallel,
Done.

Reading from Engs-30669:"C:/Users/kebl7595/Desktop/CFD/Runs/Flap/Re 3e5/Standard Flap/flap test -20 degree/project1.dat.h5" in NODE0 mode ...


  Reading results.
Parallel variables...
Done.

> (cx-gui-do cx-set-list-tree-selections "NavigationPane*Frame2*Table1*List_Tree2" (list "Results|Surfaces"))
(cx-gui-do cx-set-list-tree-selections "NavigationPane*Frame2*Table1*List_Tree2" (list "Results|Graphics|Pathlines"))
(cx-gui-do cx-set-list-tree-selections "NavigationPane*Frame2*Table1*List_Tree2" (list "Results|Graphics|Pathlines"))
(cx-gui-do cx-activate-item "NavigationPane*Frame2*Table1*List_Tree2")
(cx-gui-do cx-set-list-tree-selections "NavigationPane*Frame2*Table1*List_Tree2" (list "Results|Graphics|Pathlines"))
(cx-gui-do cx-set-list-selections "Pathlines*Frame4*List3(Release from Surfaces)" '( 3))
(cx-gui-do cx-activate-item "Pathlines*Frame4*List3(Release from Surfaces)")
(cx-gui-do cx-activate-item "Pathlines*PanelButtons*PushButton1(OK)")

number tracked = 8024, escaped = 5993, incomplete = 2031
(cx-gui-do cx-activate-item "Pathlines*PanelButtons*PushButton2(Cancel)")
(cx-gui-do cx-activate-item "ToolBar*Copy*savepicture")
(cx-gui-do cx-activate-item "Save Picture*PanelButtons*PushButton1(OK)")
(cx-gui-do cx-set-file-dialog-entries "Select File" '( "C:/Users/kebl7595/Desktop/CFD/Results/Flap Graphs/Re 3e5/20 degrees flap.png") "Hardcopy Files (*.png)")
(cx-gui-do cx-activate-item "Save Picture*PanelButtons*PushButton2(Cancel)")
/exit y

Posting ANSYS Product Improvement Program performance data 
Done.
(cx-gui-do cx-activate-item "Question*OK")
Auto-Transcript Stop Time:  13:06:43, 22 May 2024 GMT Daylight Time 
Total Transcript Time: 1 Minute 23 Second.
