Auto-Transcript Start Time:  11:47:47, 22 May 2024 GMT Daylight Time 
Current Directory: "C:\Users\kebl7595\Desktop\CFD\Runs\Flap\Re 3e5\flap test -20 degree"

              Welcome to ANSYS Fluent 2023 R1

              Copyright 1987-2023 ANSYS, Inc. All Rights Reserved.
              Unauthorized use, distribution or duplication is prohibited.
              This product is subject to U.S. laws governing export and re-export.
              For full Legal Notice, see documentation.

Build Time: Nov 28 2022 09:52:02 EST  Build Id: 10208  
 
Connected License Server List:	1055@ansyslic.eng.ox.ac.uk

*********************************************
Info: Your license enables 4-way parallel execution.
For faster simulations, please start the application with the appropriate parallel options.
*********************************************


     --------------------------------------------------------------
     This is an academic version of ANSYS FLUENT. Usage of this product
     license is limited to the terms and conditions specified in your ANSYS
     license form, additional terms section.
     --------------------------------------------------------------
Host spawning Node 0 on machine "Engs-30669" (win64).

------------------------------------------------------------------------------------
ID    Hostname    Core  O.S.         PID    Vendor                                 
------------------------------------------------------------------------------------
n0    Engs-30669  1/32  Windows-x64  28040  13th Gen Intel(R) Core(TM) i9-13900    
host  Engs-30669        Windows-x64  10188  13th Gen Intel(R) Core(TM) i9-13900    

MPI Option Selected: intel
------------------------------------------------------------------------------------

Cleanup script file is C:\\Users\\kebl7595\\Desktop\\CFD\\Runs\\Flap\\Re 3e5\\flap test -20 degree\\cleanup-fluent-Engs-30669-10188.bat

Posting ANSYS Product Improvement Program startup data
Done.

Reading journal file C:/Users/kebl7595/Desktop/CFD/Runs/Flap/Re 3e5/flap test -20 degree/project1.jou...

> /file/set-batch-options no no no 

> 
define/                 parametric-study/       solve/
display/                plot/                   surface/
exit                    preferences/            switch-to-meshing-mode
file/                   print-license-usage     turbo-workflow/
mesh/                   report/                 views/
parallel/               server/

> /file/import/cgns/mesh  "./project1.cgns"Note: Rank = 0: Process affinity not being set (6).

Importing "./project1.cgns"

Opening library "C:\\PROGRA~1\\ANSYSI~1\\v231\\fluent\\fluent23.1.0\\vki\\win64\\devtools4.4.6.dll"... done.

Read    33000 nodes
   24072 hexahedral cells, zone  1
   17404 quadrilateral wall faces, zone  2.
   63040 quadrilateral interior faces, zone  3.
     474 quadrilateral interface faces, zone  4.

Building...
     mesh
     materials,
     interface,
     domains,
     zones,
	interface-default_subface
	default_interior-1
	default_subface
	default
     parallel,
The automatic selection for flux type has changed to Rhie-Chow: momentum based.

Done.


> 
adjoint/                parallel/               server/
define/                 parametric-study/       solve/
display/                plot/                   surface/
exit                    preferences/            turbo-workflow/
file/                   print-license-usage     views/
mesh/                   report/

> /define/models/solver/density-based-implicit yes

> 
adjoint/                parallel/               server/
define/                 parametric-study/       solve/
display/                plot/                   surface/
exit                    preferences/            turbo-workflow/
file/                   print-license-usage     views/
mesh/                   report/

> /define/models/energy? yes yes invalid command [yes]
yes

> /define/models/viscous/kw-standard? yes

> 
adjoint/                parallel/               server/
define/                 parametric-study/       solve/
display/                plot/                   surface/
exit                    preferences/            turbo-workflow/
file/                   print-license-usage     views/
mesh/                   report/

> /define/materials/change-create air air air is a fluid
yes 
Density
ideal-gas no data required.

no no no no no no

> 
adjoint/                parallel/               server/
define/                 parametric-study/       solve/
display/                plot/                   surface/
exit                    preferences/            turbo-workflow/
file/                   print-license-usage     views/
mesh/                   report/

> /mesh/modify-zones/sep-face-zone-angle 2 90 yes

 8024 faces in contiguous region 0
 441 faces in contiguous region 1
 618 faces in contiguous region 2
 8024 faces in contiguous region 3
 297 faces in contiguous region 4
 Separates zone 2 into 5 zone(s).
Updating new zone information...
   created new zone default_subface:009 from default_subface
   created new zone default_subface:008 from default_subface
   created new zone default_subface:007 from default_subface
   created new zone default_subface:006 from default_subface
done.

> 
adjoint/                parallel/               server/
define/                 parametric-study/       solve/
display/                plot/                   surface/
exit                    preferences/            turbo-workflow/
file/                   print-license-usage     views/
mesh/                   report/

> /define/boundary-conditions/zone-name  6 wing

> /define/boundary-conditions/zone-name  2 sym1

> /define/boundary-conditions/zone-name  8 sym2

> 
adjoint/                parallel/               server/
define/                 parametric-study/       solve/
display/                plot/                   surface/
exit                    preferences/            turbo-workflow/
file/                   print-license-usage     views/
mesh/                   report/

> /define/boundary-conditions/zone-name  7 far1

> /define/boundary-conditions/zone-name 9 far2

> 
adjoint/                parallel/               server/
define/                 parametric-study/       solve/
display/                plot/                   surface/
exit                    preferences/            turbo-workflow/
file/                   print-license-usage     views/
mesh/                   report/

> /define/boundary-conditions/zone-type  7 pressure-far-field

> /define/boundary-conditions/zone-type 9 pressure-far-field

> /define/boundary-conditions/zone-type  2 symmetry

> /define/boundary-conditions/zone-type  8 symmetry

> 
adjoint/                parallel/               server/
define/                 parametric-study/       solve/
display/                plot/                   surface/
exit                    preferences/            turbo-workflow/
file/                   print-license-usage     views/
mesh/                   report/

> /define/boundary-conditions/pressure-far-field (far2 far1)
far1 no -0.8642 no 0.1 no 300 yes no 0.939693 no -0.342020 no 0. no yes 5 0.02

> /define/boundary-conditions/pressure-far-field (far2 far1)
far2 no -0.8642 no 0.1 no 300 yes no 0.939693 no -0.342020 no 0. no yes 5 0.02

> 
adjoint/                parallel/               server/
define/                 parametric-study/       solve/
display/                plot/                   surface/
exit                    preferences/            turbo-workflow/
file/                   print-license-usage     views/
mesh/                   report/

> /solve/initialize/compute-defaults/pressure-far-field (far2 far1)
far1

> /solve/initialize/initialize-flow

> 
adjoint/                parallel/               server/
define/                 parametric-study/       solve/
display/                plot/                   surface/
exit                    preferences/            turbo-workflow/
file/                   print-license-usage     views/
mesh/                   report/

> /solve/monitors/residual/convergence-criteria 1.e-9 1.e-9 1.e-9 1.e-9 1.e-9 1.e-9 1.e-9

> /solve/iterate 2000

  iter  continuity  x-velocity  y-velocity  z-velocity      energy           k       omega     time/iter
     1  1.0000e+00  1.0000e+00  1.0000e+00  1.0000e+00  1.0000e+00  4.4347e-02  4.9144e-02  0:00:00 1999
     2  4.6155e-01  2.5873e-01  2.7173e-01  1.0000e+00  4.6396e-01  3.9208e-02  3.4988e-02  0:33:18 1998
     3  2.0937e-01  1.4622e-01  1.6934e-01  1.0000e+00  2.0966e-01  3.4971e-02  2.9482e-02  0:26:38 1997
     4  1.4897e-01  8.5698e-02  1.1241e-01  9.4222e-01  1.4952e-01  3.1547e-02  2.6287e-02  0:21:17 1996
     5  1.2252e-01  5.8848e-02  8.8971e-02  9.7586e-01  1.2336e-01  2.8763e-02  2.4325e-02  0:17:01 1995
     6  1.0603e-01  4.1549e-02  7.4830e-02  9.3033e-01  1.0682e-01  2.6361e-02  2.2673e-02  0:13:37 1994
     7  9.2566e-02  2.8237e-02  6.4291e-02  9.3259e-01  9.3184e-02  2.4264e-02  2.1212e-02  0:10:53 1993
     8  8.4122e-02  1.9422e-02  5.7315e-02  9.3849e-01  8.4638e-02  2.2461e-02  1.9871e-02  0:08:42 1992
     9  7.7342e-02  1.4869e-02  5.3510e-02  9.9917e-01  7.7801e-02  2.0978e-02  1.8669e-02  0:06:58 1991
    10  7.0816e-02  1.3152e-02  5.2340e-02  1.0223e+00  7.1213e-02  1.9698e-02  1.7652e-02  0:05:34 1990
    11  6.5237e-02  1.2492e-02  5.3179e-02  1.5381e+00  6.5571e-02  1.8596e-02  1.6747e-02  0:11:05 1989

  iter  continuity  x-velocity  y-velocity  z-velocity      energy           k       omega     time/iter
    12  6.0978e-02  1.1934e-02  5.5381e-02  1.1663e+00  6.1261e-02  1.7641e-02  1.5932e-02  0:08:52 1988
    13  5.8619e-02  1.1200e-02  5.8546e-02  9.8113e-01  5.8863e-02  1.6822e-02  1.5198e-02  0:07:05 1987
    14  5.7827e-02  1.0340e-02  6.2283e-02  1.0439e+00  5.8049e-02  1.6100e-02  1.4491e-02  0:05:40 1986
    15  5.8210e-02  9.7776e-03  6.5402e-02  1.0640e+00  5.8421e-02  1.5486e-02  1.3893e-02  0:04:32 1985
    16  5.9746e-02  9.8214e-03  6.7848e-02  1.0826e+00  5.9958e-02  1.4911e-02  1.3371e-02  0:03:37 1984
    17  6.1793e-02  1.0561e-02  6.9111e-02  1.1033e+00  6.2016e-02  1.4396e-02  1.2916e-02  0:02:54 1983
    18  6.3108e-02  1.1845e-02  6.9808e-02  1.1388e+00  6.3344e-02  1.3959e-02  1.2565e-02  0:02:19 1982
    19  6.4114e-02  1.3113e-02  6.9841e-02  1.1819e+00  6.4363e-02  1.3564e-02  1.2243e-02  0:01:51 1981
    20  6.4065e-02  1.4211e-02  6.9363e-02  1.2238e+00  6.4312e-02  1.3216e-02  1.1982e-02  0:08:05 1980
    21  6.2040e-02  1.5307e-02  6.8497e-02  1.2521e+00  6.2268e-02  1.2936e-02  1.1771e-02  0:06:28 1979
    22  5.7711e-02  1.6205e-02  6.6748e-02  1.2636e+00  5.7899e-02  1.2673e-02  1.1491e-02  0:05:10 1978

  iter  continuity  x-velocity  y-velocity  z-velocity      energy           k       omega     time/iter
    23  5.1831e-02  1.6661e-02  6.5176e-02  1.2579e+00  5.1968e-02  1.2472e-02  1.1241e-02  0:04:08 1977
    24  4.5156e-02  1.6579e-02  6.3720e-02  1.2319e+00  4.5241e-02  1.2308e-02  1.0917e-02  0:03:18 1976
    25  3.8537e-02  1.6152e-02  6.2203e-02  1.1906e+00  3.8583e-02  1.2158e-02  1.0651e-02  0:02:38 1975
    26  3.2999e-02  1.5133e-02  6.0742e-02  1.1403e+00  3.3020e-02  1.2013e-02  1.0476e-02  0:02:07 1974
    27  2.9190e-02  1.3705e-02  5.9374e-02  1.0830e+00  2.9204e-02  1.1910e-02  1.0248e-02  0:08:16 1973
    28  2.7268e-02  1.2065e-02  5.8182e-02  1.0237e+00  2.7292e-02  1.1800e-02  9.9350e-03  0:06:37 1972
    29  2.6262e-02  1.0256e-02  5.7097e-02  9.6526e-01  2.6299e-02  1.1706e-02  9.6634e-03  0:05:17 1971
    30  2.6198e-02  8.7034e-03  5.6125e-02  9.1061e-01  2.6247e-02  1.1590e-02  9.4396e-03  0:04:14 1970
    31  2.6625e-02  7.6163e-03  5.5244e-02  8.6191e-01  2.6682e-02  1.1456e-02  9.1683e-03  0:03:23 1969
    32  2.7274e-02  6.8293e-03  5.4344e-02  8.2038e-01  2.7336e-02  1.1349e-02  8.9223e-03  0:02:42 1968
    33  2.7963e-02  6.1897e-03  5.3392e-02  7.8482e-01  2.8026e-02  1.1263e-02  8.7288e-03  0:02:10 1967

  iter  continuity  x-velocity  y-velocity  z-velocity      energy           k       omega     time/iter
    34  2.8477e-02  5.6638e-03  5.2393e-02  7.5347e-01  2.8539e-02  1.1181e-02  8.5248e-03  0:01:44 1966
    35  2.8770e-02  5.2155e-03  5.1318e-02  7.2108e-01  2.8827e-02  1.1104e-02  8.3124e-03  0:01:23 1965
    36  2.8825e-02  4.7950e-03  5.0134e-02  6.8977e-01  2.8873e-02  1.1061e-02  8.1578e-03  0:07:39 1964
    37  2.8686e-02  4.4442e-03  4.8868e-02  6.5576e-01  2.8722e-02  1.1028e-02  8.0219e-03  0:06:07 1963
    38  2.8366e-02  4.1760e-03  4.7518e-02  6.2431e-01  2.8388e-02  1.0998e-02  7.8738e-03  0:04:53 1962
    39  2.7897e-02  4.0004e-03  4.6059e-02  5.9544e-01  2.7905e-02  1.0980e-02  7.7539e-03  0:03:55 1961
    40  2.7304e-02  3.9100e-03  4.4483e-02  5.6798e-01  2.7295e-02  1.0967e-02  7.6527e-03  0:03:08 1960
    41  2.6757e-02  3.8906e-03  4.2820e-02  5.4169e-01  2.6733e-02  1.0945e-02  7.5669e-03  0:02:30 1959
    42  2.6378e-02  3.9513e-03  4.1136e-02  5.1603e-01  2.6341e-02  1.0922e-02  7.5039e-03  0:02:00 1958
    43  2.6059e-02  4.0427e-03  3.9458e-02  4.9025e-01  2.6011e-02  1.0905e-02  7.4486e-03  0:01:36 1957
    44  2.5829e-02  4.1564e-03  3.7829e-02  4.6602e-01  2.5773e-02  1.0886e-02  7.4465e-03  0:01:17 1956

  iter  continuity  x-velocity  y-velocity  z-velocity      energy           k       omega     time/iter
    45  2.5757e-02  4.2605e-03  3.6260e-02  4.4297e-01  2.5698e-02  1.0854e-02  7.4337e-03  0:07:32 1955
    46  2.5835e-02  4.3600e-03  3.4801e-02  4.2821e-01  2.5776e-02  1.0844e-02  7.4378e-03  0:06:02 1954
    47  2.6069e-02  4.4864e-03  3.3568e-02  4.2247e-01  2.6015e-02  1.0818e-02  7.4368e-03  0:04:49 1953
    48  2.6540e-02  4.6432e-03  3.2541e-02  4.2535e-01  2.6496e-02  1.0799e-02  7.4752e-03  0:03:51 1952
    49  2.7187e-02  4.8516e-03  3.1733e-02  4.3863e-01  2.7156e-02  1.0794e-02  7.4809e-03  0:03:05 1951
    50  2.8197e-02  5.0649e-03  3.1283e-02  4.5419e-01  2.8184e-02  1.0847e-02  7.5546e-03  0:02:28 1950
    51  2.9521e-02  5.3164e-03  3.1155e-02  4.7066e-01  2.9526e-02  1.0892e-02  7.5496e-03  0:01:58 1949
    52  3.1048e-02  5.5471e-03  3.1327e-02  4.8879e-01  3.1071e-02  1.0984e-02  7.6037e-03  0:01:35 1948
    53  3.2569e-02  5.6832e-03  3.1917e-02  5.0511e-01  3.2610e-02  1.1142e-02  7.6390e-03  0:01:16 1947
    54  3.4238e-02  5.8419e-03  3.2692e-02  5.1961e-01  3.4298e-02  1.1233e-02  7.6125e-03  0:07:30 1946
    55  3.5471e-02  5.9210e-03  3.3712e-02  5.3115e-01  3.5548e-02  1.1436e-02  7.6552e-03  0:06:00 1945

  iter  continuity  x-velocity  y-velocity  z-velocity      energy           k       omega     time/iter
    56  3.6474e-02  5.9701e-03  3.4794e-02  5.4234e-01  3.6565e-02  1.1576e-02  7.6678e-03  0:04:47 1944
    57  3.7475e-02  5.9349e-03  3.5856e-02  5.5501e-01  3.7579e-02  1.1645e-02  7.6984e-03  0:03:50 1943
    58  3.8082e-02  5.9102e-03  3.6754e-02  5.6355e-01  3.8191e-02  1.1747e-02  7.6848e-03  0:03:04 1942
    59  3.7877e-02  5.7177e-03  3.7269e-02  5.6841e-01  3.7982e-02  1.1997e-02  7.7039e-03  0:02:27 1941
    60  3.6691e-02  5.4798e-03  3.7339e-02  5.6888e-01  3.6784e-02  1.2181e-02  7.7404e-03  0:01:58 1940
    61  3.5177e-02  5.2166e-03  3.7093e-02  5.6780e-01  3.5257e-02  1.2358e-02  7.7537e-03  0:01:34 1939
    62  3.3959e-02  4.9209e-03  3.6756e-02  5.6074e-01  3.4021e-02  1.2295e-02  7.6901e-03  0:01:15 1938
    63  3.3127e-02  4.6726e-03  3.6180e-02  5.5585e-01  3.3170e-02  1.2484e-02  7.7047e-03  0:07:27 1937
    64  3.2309e-02  4.5285e-03  3.5800e-02  5.4772e-01  3.2336e-02  1.2684e-02  7.7044e-03  0:05:58 1936
    65  3.1445e-02  4.3618e-03  3.5052e-02  5.4289e-01  3.1460e-02  1.2828e-02  7.8127e-03  0:04:46 1935
    66  3.0599e-02  4.1485e-03  3.4201e-02  5.3812e-01  3.0605e-02  1.3097e-02  7.8280e-03  0:03:49 1934

  iter  continuity  x-velocity  y-velocity  z-velocity      energy           k       omega     time/iter
    67  2.9937e-02  3.9715e-03  3.3651e-02  5.4116e-01  2.9937e-02  1.3127e-02  7.7919e-03  0:03:03 1933
    68  2.9501e-02  3.8661e-03  3.3149e-02  5.4941e-01  2.9498e-02  1.3258e-02  7.8057e-03  0:02:26 1932
    69  2.9195e-02  3.8064e-03  3.2599e-02  5.8787e-01  2.9190e-02  1.3401e-02  7.8271e-03  0:01:57 1931
    70  2.8866e-02  3.7738e-03  3.1802e-02  6.3376e-01  2.8860e-02  1.3617e-02  7.8201e-03  0:01:34 1930
    71  2.8348e-02  3.7510e-03  3.0795e-02  7.0822e-01  2.8341e-02  1.3641e-02  7.8678e-03  0:01:15 1929
    72  2.7622e-02  3.7382e-03  2.9606e-02  7.9461e-01  2.7613e-02  1.3781e-02  7.9197e-03  0:01:00 1928
    73  2.6708e-02  3.7335e-03  2.8233e-02  8.8720e-01  2.6695e-02  1.3979e-02  7.8618e-03  0:07:13 1927
    74  2.5589e-02  3.8032e-03  2.6771e-02  1.0063e+00  2.5569e-02  1.4070e-02  7.8470e-03  0:05:46 1926
    75  2.4299e-02  3.9481e-03  2.5299e-02  1.2281e+00  2.4272e-02  1.4123e-02  7.8369e-03  0:04:37 1925
    76  2.2917e-02  4.0578e-03  2.3842e-02  1.4982e+00  2.2884e-02  1.4304e-02  7.8288e-03  0:03:41 1924
    77  2.1479e-02  4.1075e-03  2.2388e-02  1.5604e+00  2.1440e-02  1.4522e-02  7.7805e-03  0:02:57 1923

  iter  continuity  x-velocity  y-velocity  z-velocity      energy           k       omega     time/iter
    78  2.0150e-02  4.1120e-03  2.1026e-02  1.7602e+00  2.0106e-02  1.4677e-02  7.7658e-03  0:02:22 1922
    79  1.9075e-02  4.0883e-03  1.9820e-02  2.2760e+00  1.9030e-02  1.4804e-02  7.7340e-03  0:01:53 1921
    80  1.8202e-02  4.0346e-03  1.8463e-02  3.2002e+00  1.8157e-02  1.4942e-02  7.6846e-03  0:01:31 1920
    81  1.7548e-02  4.0167e-03  1.7587e-02  4.4351e+00  1.7507e-02  1.5137e-02  7.6607e-03  0:01:12 1919
    82  1.7147e-02  4.0225e-03  1.7079e-02  5.7414e+00  1.7111e-02  1.5308e-02  7.6418e-03  0:00:58 1918
    83  1.7008e-02  4.0415e-03  1.6905e-02  6.4059e+00  1.6980e-02  1.5528e-02  7.5979e-03  0:07:10 1917
    84  1.6981e-02  4.0640e-03  1.7013e-02  5.5119e+00  1.6961e-02  1.5735e-02  7.5412e-03  0:05:44 1916
    85  1.7032e-02  4.1048e-03  1.7324e-02  4.5632e+00  1.7020e-02  1.5939e-02  7.5023e-03  0:04:35 1915
    86  1.6976e-02  4.1546e-03  1.7759e-02  4.8455e+00  1.6971e-02  1.6140e-02  7.4492e-03  0:03:40 1914
    87  1.6889e-02  4.2112e-03  1.8279e-02  4.2996e+00  1.6891e-02  1.6321e-02  7.4232e-03  0:02:56 1913
    88  1.6677e-02  4.2786e-03  1.8832e-02  3.8606e+00  1.6684e-02  1.6543e-02  7.3807e-03  0:02:20 1912

  iter  continuity  x-velocity  y-velocity  z-velocity      energy           k       omega     time/iter
    89  1.6539e-02  4.3560e-03  1.9358e-02  3.3630e+00  1.6550e-02  1.6811e-02  7.3577e-03  0:01:52 1911
    90  1.6423e-02  4.4427e-03  1.9830e-02  3.0112e+00  1.6437e-02  1.7108e-02  7.3287e-03  0:01:30 1910
    91  1.6300e-02  4.5164e-03  2.0241e-02  2.8380e+00  1.6314e-02  1.7377e-02  7.3117e-03  0:01:12 1909
    92  1.6225e-02  4.5673e-03  2.0588e-02  2.8472e+00  1.6240e-02  1.7623e-02  7.3447e-03  0:07:19 1908
    93  1.6252e-02  4.6080e-03  2.0884e-02  3.0043e+00  1.6267e-02  1.7985e-02  7.3521e-03  0:05:51 1907
    94  1.6422e-02  4.6275e-03  2.1141e-02  3.1708e+00  1.6438e-02  1.8308e-02  7.3528e-03  0:04:41 1906
    95  1.6797e-02  4.6343e-03  2.1373e-02  3.2704e+00  1.6814e-02  1.8562e-02  7.3423e-03  0:03:44 1905
    96  1.7411e-02  4.6253e-03  2.1578e-02  3.3830e+00  1.7430e-02  1.8745e-02  7.3155e-03  0:02:59 1904
    97  1.8274e-02  4.5904e-03  2.1737e-02  3.4527e+00  1.8296e-02  1.9004e-02  7.3036e-03  0:02:23 1903
    98  1.9379e-02  4.5383e-03  2.1859e-02  3.4452e+00  1.9404e-02  1.9320e-02  7.3043e-03  0:01:55 1902
    99  2.0676e-02  4.4863e-03  2.1921e-02  3.5025e+00  2.0704e-02  1.9524e-02  7.2879e-03  0:01:32 1901

  iter  continuity  x-velocity  y-velocity  z-velocity      energy           k       omega     time/iter
   100  2.2100e-02  4.4116e-03  2.1927e-02  3.4456e+00  2.2131e-02  1.9733e-02  7.2429e-03  0:01:13 1900
   101  2.3588e-02  4.3394e-03  2.1873e-02  3.3607e+00  2.3623e-02  1.9788e-02  7.2086e-03  0:07:18 1899
   102  2.5081e-02  4.2793e-03  2.1788e-02  3.2705e+00  2.5117e-02  1.9772e-02  7.1875e-03  0:05:51 1898
   103  2.6516e-02  4.2325e-03  2.1667e-02  3.1844e+00  2.6555e-02  1.9882e-02  7.1688e-03  0:04:40 1897
   104  2.7783e-02  4.2176e-03  2.1504e-02  3.0702e+00  2.7824e-02  2.0023e-02  7.1410e-03  0:03:44 1896
   105  2.8819e-02  4.2332e-03  2.1302e-02  2.9551e+00  2.8862e-02  2.0206e-02  7.1049e-03  0:02:59 1895
   106  2.9541e-02  4.2860e-03  2.1084e-02  2.8356e+00  2.9585e-02  2.0299e-02  7.0474e-03  0:02:23 1894
   107  2.9958e-02  4.3790e-03  2.0923e-02  2.7328e+00  3.0003e-02  2.0352e-02  6.9784e-03  0:01:55 1893
   108  3.0002e-02  4.5173e-03  2.0753e-02  2.6505e+00  3.0047e-02  2.0314e-02  6.8934e-03  0:01:32 1892
   109  2.9688e-02  4.6872e-03  2.0551e-02  2.5734e+00  2.9732e-02  2.0194e-02  6.8419e-03  0:01:13 1891
   110  2.8960e-02  4.8866e-03  2.0329e-02  2.5017e+00  2.9002e-02  1.9998e-02  6.7892e-03  0:00:59 1890

  iter  continuity  x-velocity  y-velocity  z-velocity      energy           k       omega     time/iter
   111  2.7701e-02  5.0921e-03  2.0027e-02  2.4140e+00  2.7741e-02  1.9911e-02  6.7203e-03  0:07:05 1889
   112  2.5968e-02  5.3046e-03  1.9629e-02  2.3046e+00  2.6003e-02  1.9877e-02  6.6740e-03  0:05:40 1888
   113  2.3869e-02  5.4897e-03  1.9102e-02  2.2048e+00  2.3899e-02  1.9802e-02  6.6190e-03  0:04:31 1887
   114  2.1617e-02  5.6111e-03  1.8455e-02  2.0974e+00  2.1640e-02  1.9696e-02  6.5400e-03  0:03:37 1886
   115  1.9320e-02  5.6638e-03  1.7683e-02  1.9830e+00  1.9335e-02  1.9573e-02  6.4517e-03  0:02:54 1885
   116  1.7141e-02  5.6474e-03  1.6863e-02  1.8800e+00  1.7148e-02  1.9496e-02  6.3481e-03  0:02:19 1884
   117  1.5304e-02  5.5717e-03  1.6100e-02  1.7945e+00  1.5302e-02  1.9373e-02  6.2330e-03  0:01:51 1883
   118  1.3893e-02  5.4273e-03  1.5401e-02  1.7260e+00  1.3885e-02  1.9260e-02  6.1070e-03  0:01:29 1882
   119  1.2935e-02  5.2256e-03  1.4831e-02  1.6759e+00  1.2922e-02  1.9111e-02  5.9821e-03  0:01:11 1881
   120  1.2402e-02  4.9919e-03  1.4408e-02  1.6292e+00  1.2385e-02  1.8976e-02  5.8888e-03  0:07:13 1880
   121  1.2254e-02  4.7510e-03  1.4140e-02  1.5925e+00  1.2234e-02  1.8846e-02  5.7884e-03  0:05:46 1879

  iter  continuity  x-velocity  y-velocity  z-velocity      energy           k       omega     time/iter
   122  1.2346e-02  4.5391e-03  1.4039e-02  1.5644e+00  1.2326e-02  1.8733e-02  5.7012e-03  0:04:37 1878
   123  1.2586e-02  4.3332e-03  1.4079e-02  1.5342e+00  1.2566e-02  1.8637e-02  5.6070e-03  0:03:41 1877
   124  1.2884e-02  4.1544e-03  1.4214e-02  1.5189e+00  1.2864e-02  1.8522e-02  5.5275e-03  0:02:57 1876
   125  1.3182e-02  4.0020e-03  1.4407e-02  1.5082e+00  1.3161e-02  1.8412e-02  5.4551e-03  0:02:21 1875
   126  1.3429e-02  3.8928e-03  1.4632e-02  1.4996e+00  1.3407e-02  1.8319e-02  5.4099e-03  0:01:53 1874
   127  1.3635e-02  3.8348e-03  1.4873e-02  1.4959e+00  1.3612e-02  1.8224e-02  5.3726e-03  0:01:30 1873
   128  1.3825e-02  3.8349e-03  1.5126e-02  1.4991e+00  1.3801e-02  1.8092e-02  5.3296e-03  0:01:12 1872
   129  1.3973e-02  3.8680e-03  1.5368e-02  1.5099e+00  1.3947e-02  1.8031e-02  5.2937e-03  0:07:12 1871
   130  1.4095e-02  3.9337e-03  1.5596e-02  1.5330e+00  1.4067e-02  1.8013e-02  5.2711e-03  0:05:45 1870
   131  1.4284e-02  4.0267e-03  1.5801e-02  1.5751e+00  1.4254e-02  1.8033e-02  5.2484e-03  0:04:36 1869
   132  1.4470e-02  4.1330e-03  1.5993e-02  1.6405e+00  1.4438e-02  1.8184e-02  5.2308e-03  0:03:41 1868

  iter  continuity  x-velocity  y-velocity  z-velocity      energy           k       omega     time/iter
   133  1.4753e-02  4.2446e-03  1.6181e-02  1.7430e+00  1.4719e-02  1.8426e-02  5.2276e-03  0:02:57 1867
   134  1.5088e-02  4.3419e-03  1.6334e-02  1.8721e+00  1.5053e-02  1.8675e-02  5.2340e-03  0:02:21 1866
   135  1.5405e-02  4.4120e-03  1.6448e-02  2.0126e+00  1.5368e-02  1.8854e-02  5.2613e-03  0:01:53 1865
   136  1.5720e-02  4.4632e-03  1.6533e-02  2.1571e+00  1.5682e-02  1.8952e-02  5.2706e-03  0:01:30 1864
   137  1.6002e-02  4.4969e-03  1.6588e-02  2.2924e+00  1.5963e-02  1.8981e-02  5.2948e-03  0:01:12 1863
   138  1.6203e-02  4.5087e-03  1.6618e-02  2.4150e+00  1.6164e-02  1.8918e-02  5.3233e-03  0:07:10 1862
   139  1.6361e-02  4.5149e-03  1.6633e-02  2.5216e+00  1.6323e-02  1.8807e-02  5.3511e-03  0:05:44 1861
   140  1.6485e-02  4.5140e-03  1.6654e-02  2.5948e+00  1.6448e-02  1.8816e-02  5.3870e-03  0:04:35 1860
   141  1.6521e-02  4.5083e-03  1.6661e-02  2.6329e+00  1.6485e-02  1.8813e-02  5.4190e-03  0:03:40 1859
   142  1.6487e-02  4.4952e-03  1.6649e-02  2.6333e+00  1.6452e-02  1.8846e-02  5.4373e-03  0:02:56 1858
   143  1.6413e-02  4.4824e-03  1.6657e-02  2.6070e+00  1.6380e-02  1.8870e-02  5.4378e-03  0:02:21 1857

  iter  continuity  x-velocity  y-velocity  z-velocity      energy           k       omega     time/iter
   144  1.6340e-02  4.4680e-03  1.6670e-02  2.5692e+00  1.6310e-02  1.8818e-02  5.4203e-03  0:01:52 1856
   145  1.6402e-02  4.4562e-03  1.6696e-02  2.5454e+00  1.6374e-02  1.8785e-02  5.4280e-03  0:01:30 1855
   146  1.6612e-02  4.4493e-03  1.6734e-02  2.5380e+00  1.6587e-02  1.8730e-02  5.4391e-03  0:01:12 1854
   147  1.6880e-02  4.4405e-03  1.6766e-02  2.5612e+00  1.6859e-02  1.8699e-02  5.4386e-03  0:00:57 1853
   148  1.7222e-02  4.4373e-03  1.6793e-02  2.6227e+00  1.7205e-02  1.8632e-02  5.4633e-03  0:06:56 1852
   149  1.7692e-02  4.4555e-03  1.6815e-02  2.7115e+00  1.7679e-02  1.8551e-02  5.4548e-03  0:05:33 1851
   150  1.8212e-02  4.4824e-03  1.6838e-02  2.8262e+00  1.8202e-02  1.8405e-02  5.4682e-03  0:04:26 1850
   151  1.8972e-02  4.5162e-03  1.6866e-02  2.9556e+00  1.8967e-02  1.8185e-02  5.4670e-03  0:03:33 1849
   152  1.9874e-02  4.5459e-03  1.6944e-02  3.0561e+00  1.9872e-02  1.7928e-02  5.4662e-03  0:02:50 1848
   153  2.0881e-02  4.5695e-03  1.7072e-02  3.1392e+00  2.0884e-02  1.7592e-02  5.4622e-03  0:02:16 1847
   154  2.1988e-02  4.5987e-03  1.7241e-02  3.1603e+00  2.1994e-02  1.7339e-02  5.4521e-03  0:01:49 1846

  iter  continuity  x-velocity  y-velocity  z-velocity      energy           k       omega     time/iter
   155  2.3086e-02  4.6284e-03  1.7488e-02  3.1150e+00  2.3096e-02  1.7119e-02  5.4219e-03  0:01:27 1845
   156  2.4077e-02  4.6509e-03  1.7751e-02  3.0260e+00  2.4090e-02  1.6931e-02  5.4058e-03  0:01:10 1844
   157  2.4931e-02  4.6501e-03  1.7986e-02  2.9030e+00  2.4947e-02  1.6690e-02  5.3962e-03  0:07:04 1843
   158  2.5587e-02  4.6428e-03  1.8133e-02  2.7876e+00  2.5606e-02  1.6562e-02  5.3396e-03  0:05:39 1842
   159  2.5960e-02  4.6293e-03  1.8197e-02  2.6769e+00  2.5981e-02  1.6343e-02  5.2975e-03  0:04:31 1841
   160  2.5942e-02  4.6117e-03  1.8160e-02  2.6261e+00  2.5965e-02  1.6060e-02  5.2365e-03  0:03:37 1840
   161  2.5500e-02  4.5888e-03  1.8003e-02  2.6218e+00  2.5523e-02  1.5851e-02  5.1659e-03  0:02:53 1839
   162  2.4667e-02  4.5624e-03  1.7746e-02  2.6347e+00  2.4690e-02  1.5644e-02  5.0805e-03  0:02:19 1838
   163  2.3550e-02  4.5500e-03  1.7407e-02  2.7192e+00  2.3572e-02  1.5456e-02  4.9953e-03  0:01:51 1837
   164  2.2183e-02  4.5103e-03  1.6984e-02  2.8065e+00  2.2202e-02  1.5282e-02  4.9279e-03  0:01:29 1836
   165  2.0646e-02  4.4614e-03  1.6458e-02  2.9356e+00  2.0662e-02  1.5084e-02  4.8541e-03  0:01:11 1835

  iter  continuity  x-velocity  y-velocity  z-velocity      energy           k       omega     time/iter
   166  1.9028e-02  4.4158e-03  1.5915e-02  3.0832e+00  1.9041e-02  1.4915e-02  4.7427e-03  0:07:03 1834
   167  1.7412e-02  4.3690e-03  1.5363e-02  3.2312e+00  1.7422e-02  1.4740e-02  4.6491e-03  0:05:39 1833
   168  1.5905e-02  4.3302e-03  1.4813e-02  3.3591e+00  1.5910e-02  1.4539e-02  4.5736e-03  0:04:31 1832
   169  1.4567e-02  4.2915e-03  1.4097e-02  3.4713e+00  1.4569e-02  1.4340e-02  4.4939e-03  0:03:36 1831
   170  1.3401e-02  4.2509e-03  1.3504e-02  3.5806e+00  1.3398e-02  1.4142e-02  4.4129e-03  0:02:53 1830
   171  1.2569e-02  4.2358e-03  1.2986e-02  3.6431e+00  1.2564e-02  1.3911e-02  4.3550e-03  0:02:18 1829
   172  1.2127e-02  4.2269e-03  1.2542e-02  3.6556e+00  1.2120e-02  1.3663e-02  4.2928e-03  0:01:51 1828
   173  1.2008e-02  4.2208e-03  1.2167e-02  3.6283e+00  1.2002e-02  1.3449e-02  4.2292e-03  0:01:28 1827
   174  1.2208e-02  4.2095e-03  1.1883e-02  3.5781e+00  1.2202e-02  1.3189e-02  4.1731e-03  0:07:16 1826
   175  1.2674e-02  4.1947e-03  1.1678e-02  3.4882e+00  1.2670e-02  1.2936e-02  4.1253e-03  0:05:49 1825
   176  1.3297e-02  4.1779e-03  1.1560e-02  3.3513e+00  1.3295e-02  1.2682e-02  4.0808e-03  0:04:39 1824

  iter  continuity  x-velocity  y-velocity  z-velocity      energy           k       omega     time/iter
   177  1.3847e-02  4.1508e-03  1.1507e-02  3.2066e+00  1.3846e-02  1.2476e-02  4.0542e-03  0:03:43 1823
   178  1.4615e-02  4.1267e-03  1.1516e-02  3.0764e+00  1.4615e-02  1.2318e-02  4.0274e-03  0:02:58 1822
   179  1.5108e-02  4.1105e-03  1.1576e-02  2.9611e+00  1.5106e-02  1.2180e-02  4.0173e-03  0:02:22 1821
   180  1.5416e-02  4.0976e-03  1.1697e-02  2.8601e+00  1.5413e-02  1.2053e-02  4.0083e-03  0:01:54 1820
   181  1.5592e-02  4.0905e-03  1.1856e-02  2.7757e+00  1.5586e-02  1.1913e-02  3.9904e-03  0:01:31 1819
   182  1.5699e-02  4.0899e-03  1.2048e-02  2.7004e+00  1.5691e-02  1.1779e-02  3.9912e-03  0:01:13 1818
   183  1.5956e-02  4.0826e-03  1.2266e-02  2.6525e+00  1.5947e-02  1.1638e-02  3.9920e-03  0:07:02 1817
   184  1.6462e-02  4.0650e-03  1.2498e-02  2.6233e+00  1.6452e-02  1.1464e-02  3.9872e-03  0:05:37 1816
   185  1.7262e-02  4.0422e-03  1.2737e-02  2.6047e+00  1.7254e-02  1.1273e-02  3.9854e-03  0:04:30 1815
   186  1.8357e-02  4.0182e-03  1.2980e-02  2.6011e+00  1.8352e-02  1.1092e-02  3.9999e-03  0:03:36 1814
   187  1.9768e-02  3.9928e-03  1.3199e-02  2.6026e+00  1.9767e-02  1.0914e-02  4.0039e-03  0:02:52 1813

  iter  continuity  x-velocity  y-velocity  z-velocity      energy           k       omega     time/iter
   188  2.1661e-02  3.9661e-03  1.3387e-02  2.6128e+00  2.1666e-02  1.0755e-02  4.0039e-03  0:02:18 1812
   189  2.3979e-02  3.9345e-03  1.3536e-02  2.6341e+00  2.3991e-02  1.0604e-02  3.9939e-03  0:01:50 1811
   190  2.5244e-02  3.9011e-03  1.3629e-02  2.6544e+00  2.5259e-02  1.0464e-02  3.9835e-03  0:07:30 1810
   191  2.6624e-02  3.8698e-03  1.3676e-02  2.6786e+00  2.6642e-02  1.0329e-02  3.9805e-03  0:06:00 1809
   192  2.8139e-02  3.8352e-03  1.3670e-02  2.7045e+00  2.8159e-02  1.0202e-02  3.9988e-03  0:04:48 1808
   193  2.9578e-02  3.8006e-03  1.3603e-02  2.7217e+00  2.9600e-02  1.0092e-02  4.0113e-03  0:03:50 1807
   194  3.0639e-02  3.7708e-03  1.3490e-02  2.7319e+00  3.0662e-02  9.9798e-03  4.0188e-03  0:03:04 1806
   195  3.1716e-02  3.7401e-03  1.3348e-02  2.7349e+00  3.1739e-02  9.8814e-03  4.0182e-03  0:08:28 1805
   196  3.2591e-02  3.7146e-03  1.3172e-02  2.7584e+00  3.2614e-02  9.7832e-03  4.0203e-03  0:06:46 1804
   197  3.3362e-02  3.6915e-03  1.2981e-02  2.7503e+00  3.3384e-02  9.6957e-03  4.0179e-03  0:05:25 1803
   198  3.3981e-02  3.6587e-03  1.2787e-02  2.7967e+00  3.4003e-02  9.6141e-03  4.0045e-03  0:04:20 1802

  iter  continuity  x-velocity  y-velocity  z-velocity      energy           k       omega     time/iter
   199  3.4192e-02  3.6265e-03  1.2614e-02  2.9455e+00  3.4212e-02  9.5502e-03  3.9834e-03  0:03:28 1801
   200  3.3997e-02  3.5894e-03  1.2475e-02  3.2150e+00  3.4014e-02  9.4882e-03  3.9615e-03  0:08:46 1800
   201  3.3627e-02  3.5570e-03  1.2338e-02  3.5550e+00  3.3641e-02  9.4259e-03  3.9348e-03  0:07:01 1799
   202  3.2653e-02  3.5088e-03  1.2180e-02  3.9420e+00  3.2663e-02  9.3641e-03  3.8991e-03  0:05:36 1798
   203  3.0895e-02  3.4857e-03  1.1966e-02  4.3741e+00  3.0899e-02  9.3028e-03  3.8621e-03  0:04:29 1797
   204  2.8504e-02  3.4760e-03  1.1654e-02  4.8142e+00  2.8502e-02  9.2555e-03  3.8279e-03  0:03:35 1796
   205  2.5844e-02  3.4898e-03  1.1201e-02  5.2365e+00  2.5835e-02  9.1840e-03  3.7707e-03  0:08:51 1795
   206  2.3156e-02  3.4932e-03  1.0590e-02  5.6542e+00  2.3140e-02  9.1107e-03  3.7313e-03  0:07:04 1794
   207  2.0629e-02  3.4619e-03  9.8368e-03  6.0923e+00  2.0607e-02  9.0335e-03  3.6866e-03  0:05:39 1793
   208  1.8487e-02  3.4059e-03  9.0250e-03  6.5404e+00  1.8460e-02  8.9422e-03  3.6352e-03  0:04:31 1792
   209  1.6833e-02  3.3295e-03  8.2459e-03  7.0018e+00  1.6802e-02  8.8347e-03  3.5828e-03  0:03:37 1791

  iter  continuity  x-velocity  y-velocity  z-velocity      energy           k       omega     time/iter
   210  1.5645e-02  3.2532e-03  7.6179e-03  7.5268e+00  1.5612e-02  8.7173e-03  3.5387e-03  0:08:51 1790
   211  1.4887e-02  3.1942e-03  7.2374e-03  8.0798e+00  1.4854e-02  8.6098e-03  3.4880e-03  0:07:05 1789
   212  1.4458e-02  3.1707e-03  7.1376e-03  8.5664e+00  1.4425e-02  8.4969e-03  3.4365e-03  0:05:40 1788
   213  1.4287e-02  3.2156e-03  7.2860e-03  9.0893e+00  1.4256e-02  8.3841e-03  3.3872e-03  0:04:32 1787
   214  1.4298e-02  3.3108e-03  7.6133e-03  9.6381e+00  1.4268e-02  8.2775e-03  3.3379e-03  0:03:37 1786
   215  1.4373e-02  3.4424e-03  8.0233e-03  1.0192e+01  1.4346e-02  8.1627e-03  3.2827e-03  0:08:51 1785
   216  1.4408e-02  3.6007e-03  8.4286e-03  1.0696e+01  1.4383e-02  8.0677e-03  3.2476e-03  0:07:04 1784
   217  1.4342e-02  3.7886e-03  8.7640e-03  1.1047e+01  1.4318e-02  7.9779e-03  3.2050e-03  0:05:39 1783
   218  1.4149e-02  3.9857e-03  8.9958e-03  1.1230e+01  1.4126e-02  7.8969e-03  3.1792e-03  0:04:31 1782
   219  1.3817e-02  4.1700e-03  9.1128e-03  1.1208e+01  1.3795e-02  7.8136e-03  3.1424e-03  0:03:37 1781
   220  1.3391e-02  4.3260e-03  9.1404e-03  1.0947e+01  1.3369e-02  7.7590e-03  3.1069e-03  0:08:49 1780

  iter  continuity  x-velocity  y-velocity  z-velocity      energy           k       omega     time/iter
   221  1.2785e-02  4.4106e-03  9.0531e-03  1.0511e+01  1.2763e-02  7.6938e-03  3.0813e-03  0:07:03 1779
   222  1.2177e-02  4.4639e-03  8.8977e-03  9.9979e+00  1.2155e-02  7.6321e-03  3.0649e-03  0:05:38 1778
   223  1.1507e-02  4.4549e-03  8.7135e-03  9.4294e+00  1.1483e-02  7.5877e-03  3.0536e-03  0:04:31 1777
   224  1.1029e-02  4.3903e-03  8.5661e-03  8.8615e+00  1.1005e-02  7.5498e-03  3.0444e-03  0:09:32 1776
   225  1.0718e-02  4.2807e-03  8.4604e-03  8.2890e+00  1.0693e-02  7.5130e-03  3.0293e-03  0:07:37 1775
   226  1.0575e-02  4.1565e-03  8.3870e-03  7.7622e+00  1.0549e-02  7.4773e-03  3.0130e-03  0:06:05 1774
   227  1.0526e-02  4.0182e-03  8.3369e-03  7.2697e+00  1.0500e-02  7.4401e-03  3.0032e-03  0:04:52 1773
   228  1.0521e-02  3.8804e-03  8.2994e-03  6.9834e+00  1.0495e-02  7.3988e-03  2.9948e-03  0:03:54 1772
   229  1.0526e-02  3.7096e-03  8.2712e-03  6.6861e+00  1.0499e-02  7.3671e-03  2.9867e-03  0:09:01 1771
   230  1.0565e-02  3.4893e-03  8.2233e-03  6.5024e+00  1.0538e-02  7.3181e-03  2.9774e-03  0:07:13 1770
   231  1.0441e-02  3.2119e-03  8.1465e-03  6.4039e+00  1.0413e-02  7.2541e-03  2.9659e-03  0:05:46 1769

  iter  continuity  x-velocity  y-velocity  z-velocity      energy           k       omega     time/iter
   232  1.0105e-02  2.9111e-03  8.0447e-03  6.0719e+00  1.0076e-02  7.1888e-03  2.9626e-03  0:04:37 1768
   233  9.5452e-03  2.6134e-03  7.9625e-03  5.7152e+00  9.5168e-03  7.1264e-03  2.9624e-03  0:03:41 1767
   234  8.8487e-03  2.3887e-03  7.9114e-03  5.4127e+00  8.8215e-03  7.0598e-03  2.9614e-03  0:08:50 1766
   235  8.1312e-03  2.2111e-03  7.8958e-03  5.1606e+00  8.1056e-03  6.9777e-03  2.9601e-03  0:07:04 1765
   236  7.4385e-03  1.9542e-03  7.8970e-03  4.9982e+00  7.4148e-03  6.8809e-03  2.9514e-03  0:05:39 1764
   237  6.8660e-03  1.7502e-03  7.9384e-03  4.9675e+00  6.8445e-03  6.7845e-03  2.9408e-03  0:04:31 1763
   238  6.5115e-03  1.6674e-03  8.0210e-03  5.0596e+00  6.4924e-03  6.6745e-03  2.9304e-03  0:09:29 1762
   239  6.3453e-03  1.6105e-03  8.0980e-03  5.2105e+00  6.3278e-03  6.5774e-03  2.9253e-03  0:07:35 1761
   240  6.3572e-03  1.5630e-03  8.1380e-03  5.4322e+00  6.3404e-03  6.4877e-03  2.9105e-03  0:06:04 1760
   241  6.4426e-03  1.5232e-03  8.1453e-03  5.6714e+00  6.4258e-03  6.4041e-03  2.8975e-03  0:04:51 1759
   242  6.3016e-03  1.4882e-03  8.1233e-03  5.9046e+00  6.2852e-03  6.3199e-03  2.8768e-03  0:09:44 1758

  iter  continuity  x-velocity  y-velocity  z-velocity      energy           k       omega     time/iter
   243  6.1570e-03  1.4563e-03  8.0819e-03  6.0106e+00  6.1406e-03  6.2284e-03  2.8529e-03  0:07:47 1757
   244  6.0336e-03  1.4263e-03  8.0301e-03  5.9756e+00  6.0171e-03  6.1396e-03  2.8267e-03  0:06:13 1756
   245  5.9722e-03  1.3979e-03  7.9805e-03  5.8537e+00  5.9553e-03  6.0595e-03  2.7962e-03  0:04:59 1755
   246  5.8175e-03  1.3723e-03  7.9390e-03  5.6753e+00  5.8005e-03  5.9946e-03  2.7590e-03  0:03:59 1754
   247  5.6852e-03  1.3490e-03  7.9095e-03  5.5475e+00  5.6681e-03  5.9308e-03  2.7150e-03  0:09:01 1753
   248  5.5781e-03  1.3276e-03  7.8993e-03  5.4915e+00  5.5608e-03  5.8804e-03  2.6785e-03  0:07:13 1752
   249  5.4942e-03  1.3079e-03  7.9064e-03  5.4385e+00  5.4767e-03  5.8294e-03  2.6436e-03  0:05:46 1751
   250  5.4568e-03  1.2895e-03  7.9303e-03  5.3906e+00  5.4390e-03  5.7674e-03  2.6132e-03  0:04:37 1750
   251  5.5050e-03  1.2724e-03  7.9669e-03  5.3533e+00  5.4867e-03  5.6891e-03  2.5827e-03  0:09:31 1749
   252  5.6037e-03  1.2571e-03  8.0149e-03  5.3413e+00  5.5849e-03  5.6094e-03  2.5556e-03  0:07:37 1748
   253  5.7460e-03  1.2442e-03  8.0716e-03  5.3103e+00  5.7266e-03  5.5425e-03  2.5191e-03  0:06:05 1747

  iter  continuity  x-velocity  y-velocity  z-velocity      energy           k       omega     time/iter
   254  5.9339e-03  1.2337e-03  8.1342e-03  5.2524e+00  5.9138e-03  5.4699e-03  2.4810e-03  0:04:52 1746
   255  6.1692e-03  1.2264e-03  8.1999e-03  5.1679e+00  6.1484e-03  5.3930e-03  2.4462e-03  0:03:53 1745
   256  6.4423e-03  1.2222e-03  8.2659e-03  5.0507e+00  6.4207e-03  5.3147e-03  2.4124e-03  0:08:55 1744
   257  6.7424e-03  1.2218e-03  8.3302e-03  4.9059e+00  6.7199e-03  5.2396e-03  2.3840e-03  0:07:08 1743
   258  7.0587e-03  1.2253e-03  8.3914e-03  4.7336e+00  7.0354e-03  5.1634e-03  2.3664e-03  0:05:42 1742
   259  7.3806e-03  1.2319e-03  8.4479e-03  4.5807e+00  7.3565e-03  5.0855e-03  2.3512e-03  0:04:34 1741
   260  7.7081e-03  1.2408e-03  8.5006e-03  4.4718e+00  7.6832e-03  5.0139e-03  2.3419e-03  0:03:39 1740
   261  8.0373e-03  1.2519e-03  8.5507e-03  4.4382e+00  8.0115e-03  4.9410e-03  2.3344e-03  0:08:43 1739
   262  8.3606e-03  1.2643e-03  8.5973e-03  4.4479e+00  8.3341e-03  4.8713e-03  2.3345e-03  0:06:58 1738
   263  8.6689e-03  1.2887e-03  8.6365e-03  4.4939e+00  8.6418e-03  4.8029e-03  2.3437e-03  0:05:34 1737
   264  8.9621e-03  1.3267e-03  8.6695e-03  4.6373e+00  8.9343e-03  4.7449e-03  2.3663e-03  0:04:27 1736

  iter  continuity  x-velocity  y-velocity  z-velocity      energy           k       omega     time/iter
   265  9.2415e-03  1.3597e-03  8.6952e-03  4.8297e+00  9.2132e-03  4.6900e-03  2.3859e-03  0:09:21 1735
   266  9.5056e-03  1.3893e-03  8.7167e-03  4.9599e+00  9.4767e-03  4.6405e-03  2.4091e-03  0:07:28 1734
   267  9.7478e-03  1.4272e-03  8.7332e-03  5.0416e+00  9.7184e-03  4.5937e-03  2.4347e-03  0:05:58 1733
   268  9.9715e-03  1.4658e-03  8.7435e-03  5.1051e+00  9.9417e-03  4.5512e-03  2.4622e-03  0:04:47 1732
   269  1.0174e-02  1.5103e-03  8.7434e-03  5.1291e+00  1.0144e-02  4.5121e-03  2.4877e-03  0:03:49 1731
   270  1.0360e-02  1.5655e-03  8.7263e-03  5.0920e+00  1.0330e-02  4.4806e-03  2.5173e-03  0:08:49 1730
   271  1.0531e-02  1.6182e-03  8.7015e-03  5.0232e+00  1.0500e-02  4.4504e-03  2.5531e-03  0:07:03 1729
   272  1.0682e-02  1.6646e-03  8.6708e-03  4.9770e+00  1.0651e-02  4.4219e-03  2.6004e-03  0:05:38 1728
   273  1.0810e-02  1.7020e-03  8.6334e-03  4.9304e+00  1.0779e-02  4.3935e-03  2.6358e-03  0:04:30 1727
   274  1.0920e-02  1.7332e-03  8.5877e-03  4.8360e+00  1.0889e-02  4.3650e-03  2.6657e-03  0:09:21 1726
   275  1.1014e-02  1.7595e-03  8.5335e-03  4.7202e+00  1.0983e-02  4.3398e-03  2.6889e-03  0:07:29 1725

  iter  continuity  x-velocity  y-velocity  z-velocity      energy           k       omega     time/iter
   276  1.1097e-02  1.7811e-03  8.4705e-03  4.6326e+00  1.1065e-02  4.3291e-03  2.7255e-03  0:05:59 1724
   277  1.1168e-02  1.8006e-03  8.3997e-03  4.5613e+00  1.1137e-02  4.3274e-03  2.7604e-03  0:04:47 1723
   278  1.1230e-02  1.8148e-03  8.3241e-03  4.4739e+00  1.1199e-02  4.3289e-03  2.7781e-03  0:03:49 1722
   279  1.1280e-02  1.8259e-03  8.2445e-03  4.3651e+00  1.1250e-02  4.3300e-03  2.7969e-03  0:08:48 1721
   280  1.1318e-02  1.8360e-03  8.1641e-03  4.2342e+00  1.1288e-02  4.3344e-03  2.8284e-03  0:07:02 1720
   281  1.1341e-02  1.8452e-03  8.0831e-03  4.1101e+00  1.1311e-02  4.3407e-03  2.8480e-03  0:05:37 1719
   282  1.1350e-02  1.8545e-03  8.0077e-03  3.9837e+00  1.1321e-02  4.3468e-03  2.8706e-03  0:04:30 1718
   283  1.1349e-02  1.8634e-03  7.9375e-03  3.8633e+00  1.1320e-02  4.3533e-03  2.8440e-03  0:09:19 1717
   284  1.1341e-02  1.8729e-03  7.8717e-03  3.7257e+00  1.1313e-02  4.3473e-03  2.8067e-03  0:07:27 1716
   285  1.1331e-02  1.8907e-03  7.8218e-03  3.5999e+00  1.1304e-02  4.3356e-03  2.7978e-03  0:05:57 1715
   286  1.1293e-02  1.9079e-03  7.7986e-03  3.4937e+00  1.1266e-02  4.3246e-03  2.7969e-03  0:04:46 1714

  iter  continuity  x-velocity  y-velocity  z-velocity      energy           k       omega     time/iter
   287  1.1208e-02  1.9202e-03  7.7796e-03  3.4085e+00  1.1182e-02  4.3143e-03  2.8142e-03  0:03:48 1713
   288  1.1119e-02  1.9312e-03  7.7585e-03  3.3122e+00  1.1094e-02  4.3019e-03  2.8355e-03  0:08:45 1712
   289  1.1050e-02  1.9436e-03  7.7396e-03  3.2121e+00  1.1026e-02  4.2837e-03  2.8561e-03  0:07:00 1711
   290  1.1006e-02  1.9563e-03  7.7314e-03  3.1216e+00  1.0983e-02  4.2650e-03  2.8612e-03  0:05:36 1710
   291  1.0911e-02  1.9807e-03  7.7312e-03  3.0529e+00  1.0890e-02  4.2480e-03  2.8604e-03  0:04:28 1709
   292  1.0793e-02  1.9980e-03  7.7351e-03  2.9970e+00  1.0772e-02  4.2382e-03  2.8421e-03  0:09:16 1708
   293  1.0712e-02  2.0115e-03  7.7466e-03  2.9495e+00  1.0692e-02  4.2297e-03  2.8131e-03  0:07:25 1707
   294  1.0593e-02  2.0244e-03  7.7843e-03  2.9274e+00  1.0574e-02  4.2180e-03  2.7929e-03  0:05:56 1706
   295  1.0582e-02  2.0320e-03  7.8228e-03  2.9067e+00  1.0565e-02  4.2055e-03  2.7683e-03  0:04:44 1705
   296  1.0578e-02  2.0363e-03  7.8647e-03  2.8779e+00  1.0562e-02  4.1930e-03  2.7471e-03  0:03:47 1704
   297  1.0539e-02  2.0351e-03  7.9119e-03  2.8432e+00  1.0525e-02  4.1876e-03  2.7286e-03  0:08:42 1703

  iter  continuity  x-velocity  y-velocity  z-velocity      energy           k       omega     time/iter
   298  1.0619e-02  2.0360e-03  7.9657e-03  2.7990e+00  1.0606e-02  4.1836e-03  2.6986e-03  0:06:58 1702
   299  1.0785e-02  2.0386e-03  8.0214e-03  2.7552e+00  1.0773e-02  4.1775e-03  2.6676e-03  0:05:34 1701
   300  1.0960e-02  2.0428e-03  8.0812e-03  2.7146e+00  1.0950e-02  4.1751e-03  2.6394e-03  0:04:27 1700
   301  1.1148e-02  2.0446e-03  8.1463e-03  2.6772e+00  1.1139e-02  4.1713e-03  2.6219e-03  0:03:33 1699
   302  1.1339e-02  2.0450e-03  8.2104e-03  2.6395e+00  1.1331e-02  4.1639e-03  2.6043e-03  0:08:30 1698
   303  1.1502e-02  2.0441e-03  8.2708e-03  2.5976e+00  1.1495e-02  4.1584e-03  2.5956e-03  0:06:48 1697
   304  1.1603e-02  2.0406e-03  8.3221e-03  2.5612e+00  1.1598e-02  4.1525e-03  2.5708e-03  0:05:26 1696
   305  1.1622e-02  2.0350e-03  8.3576e-03  2.5217e+00  1.1617e-02  4.1466e-03  2.5545e-03  0:04:21 1695
   306  1.1561e-02  2.0258e-03  8.3834e-03  2.4806e+00  1.1557e-02  4.1376e-03  2.5346e-03  0:09:07 1694
   307  1.1429e-02  2.0160e-03  8.4014e-03  2.4453e+00  1.1425e-02  4.1255e-03  2.4944e-03  0:07:18 1693
   308  1.1240e-02  2.0063e-03  8.4132e-03  2.4002e+00  1.1236e-02  4.1135e-03  2.4576e-03  0:05:50 1692

  iter  continuity  x-velocity  y-velocity  z-velocity      energy           k       omega     time/iter
   309  1.1007e-02  1.9972e-03  8.4183e-03  2.3478e+00  1.1003e-02  4.0964e-03  2.4349e-03  0:04:40 1691
   310  1.0741e-02  1.9898e-03  8.4187e-03  2.3012e+00  1.0737e-02  4.0756e-03  2.4096e-03  0:03:44 1690
   311  1.0464e-02  1.9846e-03  8.4159e-03  2.2650e+00  1.0459e-02  4.0554e-03  2.3793e-03  0:08:37 1689
   312  1.0194e-02  1.9823e-03  8.4045e-03  2.2502e+00  1.0189e-02  4.0409e-03  2.3526e-03  0:06:53 1688
   313  9.9427e-03  1.9836e-03  8.3952e-03  2.2130e+00  9.9374e-03  4.0334e-03  2.3341e-03  0:05:30 1687
   314  9.7086e-03  1.9869e-03  8.3862e-03  2.1797e+00  9.7030e-03  4.0244e-03  2.2968e-03  0:04:24 1686
   315  9.4942e-03  1.9918e-03  8.3779e-03  2.1849e+00  9.4882e-03  4.0164e-03  2.2626e-03  0:09:08 1685
   316  9.2931e-03  1.9984e-03  8.3706e-03  2.1919e+00  9.2868e-03  4.0095e-03  2.2304e-03  0:07:18 1684
   317  9.0996e-03  2.0088e-03  8.3650e-03  2.1956e+00  9.0930e-03  4.0044e-03  2.1970e-03  0:05:50 1683
   318  8.9104e-03  2.0217e-03  8.3615e-03  2.1981e+00  8.9036e-03  3.9957e-03  2.1743e-03  0:04:40 1682
   319  8.7209e-03  2.0369e-03  8.3608e-03  2.2001e+00  8.7138e-03  3.9827e-03  2.1639e-03  0:03:44 1681

  iter  continuity  x-velocity  y-velocity  z-velocity      energy           k       omega     time/iter
   320  8.5337e-03  2.0553e-03  8.3644e-03  2.1985e+00  8.5264e-03  3.9660e-03  2.1552e-03  0:08:35 1680
   321  8.3582e-03  2.0745e-03  8.3742e-03  2.1904e+00  8.3507e-03  3.9486e-03  2.1382e-03  0:06:52 1679
   322  8.1900e-03  2.0942e-03  8.3898e-03  2.1777e+00  8.1822e-03  3.9318e-03  2.1183e-03  0:05:29 1678
   323  8.0237e-03  2.1136e-03  8.4120e-03  2.1657e+00  8.0157e-03  3.9163e-03  2.0921e-03  0:04:23 1677
   324  7.8678e-03  2.1329e-03  8.4422e-03  2.1440e+00  7.8597e-03  3.9016e-03  2.0694e-03  0:09:06 1676
   325  7.7123e-03  2.1522e-03  8.4790e-03  2.1212e+00  7.7039e-03  3.8885e-03  2.0397e-03  0:07:16 1675
   326  7.5400e-03  2.1715e-03  8.5205e-03  2.0968e+00  7.5313e-03  3.8788e-03  2.0149e-03  0:05:49 1674
   327  7.3559e-03  2.1908e-03  8.5688e-03  2.0665e+00  7.3468e-03  3.8708e-03  1.9897e-03  0:04:39 1673
   328  7.1621e-03  2.2089e-03  8.6244e-03  2.0304e+00  7.1524e-03  3.8676e-03  1.9722e-03  0:03:43 1672
   329  6.9628e-03  2.2251e-03  8.6883e-03  1.9961e+00  6.9526e-03  3.8622e-03  1.9661e-03  0:08:32 1671
   330  6.7614e-03  2.2404e-03  8.7599e-03  1.9580e+00  6.7506e-03  3.8605e-03  1.9440e-03  0:06:50 1670

  iter  continuity  x-velocity  y-velocity  z-velocity      energy           k       omega     time/iter
   331  6.5650e-03  2.2552e-03  8.8401e-03  1.9202e+00  6.5536e-03  3.8604e-03  1.9261e-03  0:05:28 1669
   332  6.3686e-03  2.2688e-03  8.9279e-03  1.8791e+00  6.3565e-03  3.8642e-03  1.9094e-03  0:04:22 1668
   333  6.1813e-03  2.2820e-03  9.0233e-03  1.8392e+00  6.1686e-03  3.8688e-03  1.8916e-03  0:09:03 1667
   334  6.0118e-03  2.2948e-03  9.1280e-03  1.8096e+00  5.9984e-03  3.8743e-03  1.8661e-03  0:07:14 1666
   335  5.8270e-03  2.3072e-03  9.2410e-03  1.7935e+00  5.8129e-03  3.8750e-03  1.8503e-03  0:05:47 1665
   336  5.6545e-03  2.3187e-03  9.3630e-03  1.7325e+00  5.6399e-03  3.8770e-03  1.8361e-03  0:04:37 1664
   337  5.5105e-03  2.3293e-03  9.4946e-03  1.7036e+00  5.4953e-03  3.8814e-03  1.8336e-03  0:03:42 1663
   338  5.3921e-03  2.3393e-03  9.6333e-03  1.6847e+00  5.3766e-03  3.8944e-03  1.8354e-03  0:08:30 1662
   339  5.2979e-03  2.3483e-03  9.7774e-03  1.6735e+00  5.2822e-03  3.9070e-03  1.8301e-03  0:06:48 1661
   340  5.2242e-03  2.3565e-03  9.9261e-03  1.6541e+00  5.2084e-03  3.9208e-03  1.8235e-03  0:05:26 1660
   341  5.1733e-03  2.3637e-03  1.0080e-02  1.6338e+00  5.1575e-03  3.9340e-03  1.8209e-03  0:04:21 1659

  iter  continuity  x-velocity  y-velocity  z-velocity      energy           k       omega     time/iter
   342  5.1515e-03  2.3705e-03  1.0238e-02  1.6154e+00  5.1359e-03  3.9518e-03  1.8221e-03  0:03:28 1658
   343  5.1474e-03  2.3783e-03  1.0400e-02  1.5995e+00  5.1321e-03  3.9679e-03  1.8202e-03  0:08:18 1657
   344  5.1108e-03  2.3856e-03  1.0564e-02  1.5867e+00  5.0957e-03  3.9827e-03  1.8115e-03  0:06:38 1656
   345  5.0960e-03  2.3928e-03  1.0733e-02  1.5756e+00  5.0813e-03  3.9977e-03  1.8078e-03  0:05:18 1655
   346  5.0884e-03  2.4005e-03  1.0906e-02  1.5652e+00  5.0741e-03  4.0116e-03  1.8076e-03  0:09:45 1654
   347  5.0930e-03  2.4091e-03  1.1082e-02  1.5618e+00  5.0791e-03  4.0208e-03  1.8086e-03  0:07:48 1653
   348  5.0985e-03  2.4172e-03  1.1264e-02  1.5648e+00  5.0852e-03  4.0302e-03  1.8005e-03  0:06:14 1652
   349  5.0936e-03  2.4247e-03  1.1451e-02  1.5714e+00  5.0808e-03  4.0377e-03  1.7897e-03  0:04:59 1651
   350  5.0744e-03  2.4315e-03  1.1641e-02  1.5614e+00  5.0621e-03  4.0459e-03  1.7805e-03  0:03:59 1650
   351  5.0468e-03  2.4393e-03  1.1834e-02  1.5555e+00  5.0349e-03  4.0556e-03  1.7726e-03  0:08:41 1649
   352  5.0018e-03  2.4484e-03  1.2027e-02  1.5616e+00  4.9903e-03  4.0629e-03  1.7579e-03  0:06:57 1648

  iter  continuity  x-velocity  y-velocity  z-velocity      energy           k       omega     time/iter
   353  4.9531e-03  2.4578e-03  1.2222e-02  1.5718e+00  4.9418e-03  4.0798e-03  1.7531e-03  0:05:33 1647
   354  4.8779e-03  2.4675e-03  1.2420e-02  1.5855e+00  4.8669e-03  4.1004e-03  1.7433e-03  0:04:26 1646
   355  4.7815e-03  2.4776e-03  1.2621e-02  1.6019e+00  4.7706e-03  4.1237e-03  1.7345e-03  0:03:33 1645
   356  4.6709e-03  2.4884e-03  1.2823e-02  1.6023e+00  4.6600e-03  4.1461e-03  1.7216e-03  0:08:19 1644
   357  4.5377e-03  2.4992e-03  1.3027e-02  1.6039e+00  4.5267e-03  4.1698e-03  1.7078e-03  0:06:39 1643
   358  4.3789e-03  2.5088e-03  1.3235e-02  1.6102e+00  4.3677e-03  4.1905e-03  1.6911e-03  0:05:19 1642
   359  4.2066e-03  2.5179e-03  1.3446e-02  1.6150e+00  4.1951e-03  4.2109e-03  1.6757e-03  0:04:15 1641
   360  4.0284e-03  2.5268e-03  1.3660e-02  1.6192e+00  4.0165e-03  4.2272e-03  1.6647e-03  0:08:52 1640
   361  3.8451e-03  2.5349e-03  1.3874e-02  1.6298e+00  3.8328e-03  4.2362e-03  1.6523e-03  0:07:05 1639
   362  3.6630e-03  2.5421e-03  1.4090e-02  1.6408e+00  3.6502e-03  4.2542e-03  1.6373e-03  0:05:40 1638
   363  3.4919e-03  2.5483e-03  1.4308e-02  1.6516e+00  3.4786e-03  4.2666e-03  1.6300e-03  0:04:32 1637

  iter  continuity  x-velocity  y-velocity  z-velocity      energy           k       omega     time/iter
   364  3.3312e-03  2.5537e-03  1.4528e-02  1.6656e+00  3.3175e-03  4.2897e-03  1.6247e-03  0:03:37 1636
   365  3.1986e-03  2.5585e-03  1.4749e-02  1.6821e+00  3.1846e-03  4.3234e-03  1.6165e-03  0:08:21 1635
   366  3.1043e-03  2.5626e-03  1.4972e-02  1.6971e+00  3.0903e-03  4.3620e-03  1.6075e-03  0:06:40 1634
   367  3.0499e-03  2.5638e-03  1.5195e-02  1.7127e+00  3.0361e-03  4.3984e-03  1.6038e-03  0:05:20 1633
   368  3.0303e-03  2.5641e-03  1.5412e-02  1.7242e+00  3.0170e-03  4.4357e-03  1.6050e-03  0:04:16 1632
   369  3.0622e-03  2.5648e-03  1.5627e-02  1.7317e+00  3.0497e-03  4.4759e-03  1.6062e-03  0:08:51 1631
   370  3.1361e-03  2.5651e-03  1.5838e-02  1.7440e+00  3.1244e-03  4.5179e-03  1.5974e-03  0:07:04 1630
   371  3.2506e-03  2.5648e-03  1.6043e-02  1.7524e+00  3.2401e-03  4.5478e-03  1.5894e-03  0:05:39 1629
   372  3.4051e-03  2.5642e-03  1.6242e-02  1.7675e+00  3.3959e-03  4.5682e-03  1.5824e-03  0:04:31 1628
   373  3.5935e-03  2.5650e-03  1.6432e-02  1.7843e+00  3.5856e-03  4.5896e-03  1.5755e-03  0:03:37 1627
   374  3.8001e-03  2.5664e-03  1.6613e-02  1.8077e+00  3.7935e-03  4.6106e-03  1.5658e-03  0:08:19 1626

  iter  continuity  x-velocity  y-velocity  z-velocity      energy           k       omega     time/iter
   375  4.0136e-03  2.5686e-03  1.6785e-02  1.8437e+00  4.0081e-03  4.6429e-03  1.5624e-03  0:06:39 1625
   376  4.2131e-03  2.5715e-03  1.6949e-02  1.8919e+00  4.2086e-03  4.6661e-03  1.5605e-03  0:05:19 1624
   377  4.3959e-03  2.5749e-03  1.7105e-02  1.9481e+00  4.3924e-03  4.6891e-03  1.5637e-03  0:04:15 1623
   378  4.5716e-03  2.5789e-03  1.7255e-02  2.0149e+00  4.5689e-03  4.7016e-03  1.5581e-03  0:08:48 1622
   379  4.7299e-03  2.5833e-03  1.7398e-02  2.0789e+00  4.7280e-03  4.7112e-03  1.5532e-03  0:07:02 1621
   380  4.8729e-03  2.5883e-03  1.7536e-02  2.1405e+00  4.8717e-03  4.7207e-03  1.5518e-03  0:05:38 1620
   381  4.9865e-03  2.5936e-03  1.7667e-02  2.1999e+00  4.9858e-03  4.7397e-03  1.5521e-03  0:04:30 1619
   382  5.0637e-03  2.5997e-03  1.7794e-02  2.2475e+00  5.0634e-03  4.7521e-03  1.5537e-03  0:03:36 1618
   383  5.1044e-03  2.6067e-03  1.7919e-02  2.3122e+00  5.1044e-03  4.7662e-03  1.5569e-03  0:08:16 1617
   384  5.1074e-03  2.6147e-03  1.8043e-02  2.3738e+00  5.1076e-03  4.7880e-03  1.5539e-03  0:06:36 1616
   385  5.0845e-03  2.6236e-03  1.8164e-02  2.4430e+00  5.0848e-03  4.8075e-03  1.5534e-03  0:05:17 1615

  iter  continuity  x-velocity  y-velocity  z-velocity      energy           k       omega     time/iter
   386  5.0517e-03  2.6334e-03  1.8285e-02  2.4985e+00  5.0520e-03  4.8421e-03  1.5557e-03  0:04:13 1614
   387  5.0066e-03  2.6449e-03  1.8405e-02  2.5497e+00  5.0069e-03  4.8733e-03  1.5650e-03  0:08:45 1613
   388  4.9431e-03  2.6582e-03  1.8526e-02  2.5773e+00  4.9433e-03  4.9045e-03  1.5735e-03  0:07:00 1612
   389  4.8763e-03  2.6734e-03  1.8646e-02  2.5936e+00  4.8764e-03  4.9447e-03  1.5801e-03  0:05:36 1611
   390  4.8029e-03  2.6904e-03  1.8767e-02  2.6082e+00  4.8029e-03  4.9902e-03  1.5824e-03  0:04:28 1610
   391  4.7259e-03  2.7095e-03  1.8891e-02  2.6202e+00  4.7256e-03  5.0184e-03  1.5858e-03  0:03:35 1609
   392  4.6386e-03  2.7308e-03  1.9016e-02  2.6511e+00  4.6381e-03  5.0421e-03  1.5920e-03  0:08:13 1608
   393  4.5527e-03  2.7545e-03  1.9145e-02  2.6998e+00  4.5518e-03  5.0715e-03  1.6028e-03  0:06:34 1607
   394  4.4775e-03  2.7798e-03  1.9276e-02  2.7597e+00  4.4763e-03  5.0986e-03  1.6158e-03  0:05:15 1606
   395  4.4040e-03  2.8073e-03  1.9408e-02  2.8179e+00  4.4025e-03  5.1172e-03  1.6265e-03  0:04:12 1605
   396  4.3265e-03  2.8368e-03  1.9543e-02  2.8963e+00  4.3246e-03  5.1544e-03  1.6353e-03  0:03:22 1604

  iter  continuity  x-velocity  y-velocity  z-velocity      energy           k       omega     time/iter
   397  4.2458e-03  2.8678e-03  1.9681e-02  2.9820e+00  4.2436e-03  5.1889e-03  1.6490e-03  0:08:02 1603
   398  4.1585e-03  2.9003e-03  1.9822e-02  3.0558e+00  4.1559e-03  5.2218e-03  1.6613e-03  0:06:25 1602
   399  4.0644e-03  2.9339e-03  1.9966e-02  3.1224e+00  4.0614e-03  5.2502e-03  1.6757e-03  0:05:08 1601
   400  3.9659e-03  2.9684e-03  2.0112e-02  3.1846e+00  3.9623e-03  5.2682e-03  1.6878e-03  0:04:06 1600
   401  3.8618e-03  3.0036e-03  2.0260e-02  3.2540e+00  3.8577e-03  5.2831e-03  1.7016e-03  0:08:37 1599
   402  3.7521e-03  3.0398e-03  2.0410e-02  3.3130e+00  3.7474e-03  5.3055e-03  1.7112e-03  0:06:53 1598
   403  3.6444e-03  3.0751e-03  2.0552e-02  3.3821e+00  3.6390e-03  5.3272e-03  1.7264e-03  0:05:30 1597
   404  3.5235e-03  3.1099e-03  2.0698e-02  3.4348e+00  3.5174e-03  5.3636e-03  1.7373e-03  0:04:24 1596
   405  3.3970e-03  3.1447e-03  2.0847e-02  3.4934e+00  3.3901e-03  5.3879e-03  1.7515e-03  0:03:31 1595
   406  3.2771e-03  3.1801e-03  2.0995e-02  3.5324e+00  3.2695e-03  5.4179e-03  1.7748e-03  0:08:08 1594
   407  3.1679e-03  3.2150e-03  2.1142e-02  3.5583e+00  3.1596e-03  5.4425e-03  1.7916e-03  0:06:30 1593

  iter  continuity  x-velocity  y-velocity  z-velocity      energy           k       omega     time/iter
   408  3.0700e-03  3.2488e-03  2.1287e-02  3.5759e+00  3.0611e-03  5.4777e-03  1.8103e-03  0:05:12 1592
   409  2.9854e-03  3.2817e-03  2.1429e-02  3.5762e+00  2.9759e-03  5.5136e-03  1.8301e-03  0:04:09 1591
   410  2.9153e-03  3.3135e-03  2.1568e-02  3.5823e+00  2.9053e-03  5.5400e-03  1.8493e-03  0:08:37 1590
   411  2.8624e-03  3.3439e-03  2.1704e-02  3.5919e+00  2.8520e-03  5.5526e-03  1.8704e-03  0:06:54 1589
   412  2.8373e-03  3.3736e-03  2.1838e-02  3.6047e+00  2.8267e-03  5.5346e-03  1.8898e-03  0:05:31 1588
   413  2.8200e-03  3.4025e-03  2.1971e-02  3.6249e+00  2.8092e-03  5.5196e-03  1.9089e-03  0:04:24 1587
   414  2.8367e-03  3.4303e-03  2.2101e-02  3.6330e+00  2.8260e-03  5.5111e-03  1.9315e-03  0:03:31 1586
   415  2.8636e-03  3.4569e-03  2.2231e-02  3.6123e+00  2.8530e-03  5.5135e-03  1.9474e-03  0:08:06 1585
   416  2.9066e-03  3.4820e-03  2.2361e-02  3.6014e+00  2.8963e-03  5.5179e-03  1.9597e-03  0:06:29 1584
   417  2.9646e-03  3.5055e-03  2.2491e-02  3.5982e+00  2.9545e-03  5.5339e-03  1.9748e-03  0:05:11 1583
   418  3.0311e-03  3.5268e-03  2.2620e-02  3.5742e+00  3.0214e-03  5.5358e-03  1.9918e-03  0:04:08 1582

  iter  continuity  x-velocity  y-velocity  z-velocity      energy           k       omega     time/iter
   419  3.1049e-03  3.5454e-03  2.2749e-02  3.5648e+00  3.0955e-03  5.5369e-03  2.0089e-03  0:08:35 1581
   420  3.1833e-03  3.5618e-03  2.2877e-02  3.5580e+00  3.1743e-03  5.5453e-03  2.0217e-03  0:06:52 1580
   421  3.2579e-03  3.5760e-03  2.3004e-02  3.5421e+00  3.2491e-03  5.5553e-03  2.0307e-03  0:05:29 1579
   422  3.3223e-03  3.5881e-03  2.3130e-02  3.5270e+00  3.3138e-03  5.5519e-03  2.0514e-03  0:04:23 1578
   423  3.3739e-03  3.5979e-03  2.3255e-02  3.5196e+00  3.3655e-03  5.5590e-03  2.0660e-03  0:03:30 1577
   424  3.4119e-03  3.6066e-03  2.3379e-02  3.5388e+00  3.4036e-03  5.5498e-03  2.0758e-03  0:08:03 1576
   425  3.4386e-03  3.6144e-03  2.3502e-02  3.5752e+00  3.4302e-03  5.5441e-03  2.0885e-03  0:06:26 1575
   426  3.4547e-03  3.6215e-03  2.3623e-02  3.6126e+00  3.4462e-03  5.5358e-03  2.1005e-03  0:05:09 1574
   427  3.4623e-03  3.6275e-03  2.3741e-02  3.6684e+00  3.4535e-03  5.5505e-03  2.1139e-03  0:04:07 1573
   428  3.4658e-03  3.6325e-03  2.3856e-02  3.7287e+00  3.4568e-03  5.5634e-03  2.1267e-03  0:08:32 1572
   429  3.4485e-03  3.6366e-03  2.3969e-02  3.8307e+00  3.4392e-03  5.5525e-03  2.1378e-03  0:06:49 1571

  iter  continuity  x-velocity  y-velocity  z-velocity      energy           k       omega     time/iter
   430  3.4178e-03  3.6400e-03  2.4077e-02  3.9056e+00  3.4080e-03  5.5595e-03  2.1401e-03  0:05:27 1570
   431  3.3842e-03  3.6424e-03  2.4181e-02  3.9680e+00  3.3739e-03  5.5505e-03  2.1434e-03  0:04:22 1569
   432  3.3500e-03  3.6433e-03  2.4280e-02  4.0195e+00  3.3392e-03  5.5258e-03  2.1546e-03  0:03:29 1568
   433  3.3154e-03  3.6423e-03  2.4373e-02  4.0498e+00  3.3041e-03  5.5046e-03  2.1633e-03  0:08:01 1567
   434  3.2806e-03  3.6399e-03  2.4461e-02  4.0553e+00  3.2687e-03  5.4910e-03  2.1724e-03  0:06:24 1566
   435  3.2493e-03  3.6360e-03  2.4539e-02  4.0679e+00  3.2369e-03  5.4699e-03  2.1798e-03  0:05:07 1565
   436  3.2321e-03  3.6309e-03  2.4614e-02  4.0726e+00  3.2193e-03  5.4464e-03  2.1900e-03  0:04:06 1564
   437  3.2390e-03  3.6250e-03  2.4684e-02  4.0826e+00  3.2258e-03  5.4395e-03  2.2063e-03  0:03:16 1563
   438  3.2348e-03  3.6177e-03  2.4750e-02  4.0516e+00  3.2213e-03  5.4244e-03  2.2180e-03  0:07:49 1562
   439  3.2503e-03  3.6097e-03  2.4815e-02  4.0202e+00  3.2366e-03  5.3965e-03  2.2285e-03  0:06:15 1561
   440  3.2827e-03  3.6014e-03  2.4876e-02  4.0072e+00  3.2689e-03  5.3683e-03  2.2389e-03  0:05:00 1560

  iter  continuity  x-velocity  y-velocity  z-velocity      energy           k       omega     time/iter
   441  3.3416e-03  3.5926e-03  2.4935e-02  4.0012e+00  3.3279e-03  5.3521e-03  2.2513e-03  0:09:12 1559
   442  3.4051e-03  3.5836e-03  2.4989e-02  3.9898e+00  3.3914e-03  5.3506e-03  2.2549e-03  0:07:21 1558
   443  3.4845e-03  3.5747e-03  2.5041e-02  4.0050e+00  3.4710e-03  5.3431e-03  2.2604e-03  0:05:53 1557
   444  3.5825e-03  3.5668e-03  2.5086e-02  4.0006e+00  3.5692e-03  5.3408e-03  2.2689e-03  0:04:42 1556
   445  3.7106e-03  3.5597e-03  2.5131e-02  3.9871e+00  3.6975e-03  5.3241e-03  2.2778e-03  0:03:45 1555
   446  3.8381e-03  3.5538e-03  2.5174e-02  3.9741e+00  3.8253e-03  5.2963e-03  2.2834e-03  0:08:11 1554
   447  3.9693e-03  3.5485e-03  2.5216e-02  3.9325e+00  3.9568e-03  5.2770e-03  2.2856e-03  0:06:33 1553
   448  4.1106e-03  3.5441e-03  2.5258e-02  3.8951e+00  4.0985e-03  5.2748e-03  2.2971e-03  0:05:14 1552
   449  4.2558e-03  3.5411e-03  2.5299e-02  3.8456e+00  4.2439e-03  5.2777e-03  2.3062e-03  0:04:11 1551
   450  4.3982e-03  3.5394e-03  2.5340e-02  3.8212e+00  4.3865e-03  5.2755e-03  2.3138e-03  0:08:31 1550
   451  4.5466e-03  3.5382e-03  2.5381e-02  3.7905e+00  4.5351e-03  5.2579e-03  2.3199e-03  0:06:48 1549

  iter  continuity  x-velocity  y-velocity  z-velocity      energy           k       omega     time/iter
   452  4.6939e-03  3.5366e-03  2.5420e-02  3.7431e+00  4.6826e-03  5.2435e-03  2.3271e-03  0:05:26 1548
   453  4.8451e-03  3.5362e-03  2.5457e-02  3.6924e+00  4.8340e-03  5.2384e-03  2.3358e-03  0:04:21 1547
   454  5.0060e-03  3.5370e-03  2.5494e-02  3.6338e+00  4.9950e-03  5.2277e-03  2.3425e-03  0:03:29 1546
   455  5.1713e-03  3.5396e-03  2.5530e-02  3.5716e+00  5.1605e-03  5.2008e-03  2.3456e-03  0:07:56 1545
   456  5.3329e-03  3.5439e-03  2.5565e-02  3.5424e+00  5.3222e-03  5.1662e-03  2.3462e-03  0:06:20 1544
   457  5.4870e-03  3.5495e-03  2.5597e-02  3.5032e+00  5.4763e-03  5.1453e-03  2.3486e-03  0:05:04 1543
   458  5.6381e-03  3.5561e-03  2.5626e-02  3.4547e+00  5.6274e-03  5.1218e-03  2.3539e-03  0:04:03 1542
   459  5.7973e-03  3.5638e-03  2.5652e-02  3.4210e+00  5.7867e-03  5.1046e-03  2.3597e-03  0:08:23 1541
   460  5.9497e-03  3.5713e-03  2.5675e-02  3.3386e+00  5.9391e-03  5.0797e-03  2.3632e-03  0:06:42 1540
   461  6.0993e-03  3.5793e-03  2.5696e-02  3.2823e+00  6.0886e-03  5.0565e-03  2.3665e-03  0:05:21 1539
   462  6.2447e-03  3.5876e-03  2.5714e-02  3.2568e+00  6.2340e-03  5.0428e-03  2.3641e-03  0:04:17 1538

  iter  continuity  x-velocity  y-velocity  z-velocity      energy           k       omega     time/iter
   463  6.3901e-03  3.5954e-03  2.5729e-02  3.2584e+00  6.3792e-03  5.0254e-03  2.3630e-03  0:03:25 1537
   464  6.5279e-03  3.6033e-03  2.5738e-02  3.2837e+00  6.5169e-03  5.0012e-03  2.3630e-03  0:07:51 1536
   465  6.6498e-03  3.6113e-03  2.5744e-02  3.4031e+00  6.6386e-03  4.9701e-03  2.3659e-03  0:06:17 1535
   466  6.7643e-03  3.6193e-03  2.5748e-02  3.3387e+00  6.7530e-03  4.9558e-03  2.3655e-03  0:05:01 1534
   467  6.8641e-03  3.6271e-03  2.5749e-02  3.3646e+00  6.8526e-03  4.9541e-03  2.3658e-03  0:04:01 1533
   468  6.9526e-03  3.6350e-03  2.5747e-02  3.4073e+00  6.9410e-03  4.9388e-03  2.3655e-03  0:08:19 1532
   469  7.0429e-03  3.6442e-03  2.5742e-02  3.3616e+00  7.0311e-03  4.9103e-03  2.3677e-03  0:06:39 1531
   470  7.1357e-03  3.6535e-03  2.5736e-02  3.3747e+00  7.1237e-03  4.8779e-03  2.3711e-03  0:05:19 1530
   471  7.2260e-03  3.6598e-03  2.5729e-02  3.3609e+00  7.2138e-03  4.8483e-03  2.3753e-03  0:04:15 1529
   472  7.3196e-03  3.6646e-03  2.5720e-02  3.3288e+00  7.3073e-03  4.8095e-03  2.3763e-03  0:03:24 1528
   473  7.4209e-03  3.6659e-03  2.5708e-02  3.3540e+00  7.4084e-03  4.7728e-03  2.3778e-03  0:07:48 1527

  iter  continuity  x-velocity  y-velocity  z-velocity      energy           k       omega     time/iter
   474  7.5216e-03  3.6643e-03  2.5697e-02  3.2622e+00  7.5089e-03  4.7454e-03  2.3799e-03  0:06:14 1526
   475  7.6170e-03  3.6574e-03  2.5683e-02  3.2624e+00  7.6042e-03  4.7203e-03  2.3785e-03  0:04:59 1525
   476  7.7134e-03  3.6456e-03  2.5667e-02  3.2327e+00  7.7005e-03  4.6966e-03  2.3769e-03  0:03:59 1524
   477  7.8139e-03  3.6290e-03  2.5648e-02  3.1450e+00  7.8009e-03  4.6742e-03  2.3777e-03  0:08:16 1523
   478  7.9297e-03  3.6097e-03  2.5627e-02  3.1578e+00  7.9166e-03  4.6446e-03  2.3757e-03  0:06:36 1522
   479  8.0513e-03  3.5886e-03  2.5605e-02  3.0823e+00  8.0380e-03  4.6060e-03  2.3734e-03  0:05:17 1521
   480  8.1785e-03  3.5677e-03  2.5582e-02  3.0771e+00  8.1652e-03  4.5681e-03  2.3723e-03  0:04:13 1520
   481  8.3009e-03  3.5453e-03  2.5556e-02  3.0303e+00  8.2875e-03  4.5305e-03  2.3668e-03  0:03:23 1519
   482  8.4261e-03  3.5244e-03  2.5528e-02  3.0045e+00  8.4126e-03  4.5039e-03  2.3635e-03  0:07:46 1518
   483  8.5620e-03  3.5043e-03  2.5499e-02  3.0275e+00  8.5484e-03  4.4788e-03  2.3617e-03  0:06:12 1517
   484  8.7151e-03  3.4842e-03  2.5467e-02  2.9230e+00  8.7015e-03  4.4584e-03  2.3564e-03  0:04:58 1516

  iter  continuity  x-velocity  y-velocity  z-velocity      energy           k       omega     time/iter
   485  8.8748e-03  3.4656e-03  2.5434e-02  2.9119e+00  8.8612e-03  4.4326e-03  2.3518e-03  0:03:58 1515
   486  9.0315e-03  3.4478e-03  2.5399e-02  2.8156e+00  9.0178e-03  4.4069e-03  2.3452e-03  0:03:10 1514
   487  9.1963e-03  3.4281e-03  2.5361e-02  2.8389e+00  9.1825e-03  4.3872e-03  2.3397e-03  0:07:35 1513
   488  9.3642e-03  3.4111e-03  2.5321e-02  2.8211e+00  9.3503e-03  4.3610e-03  2.3320e-03  0:06:03 1512
   489  9.5391e-03  3.3944e-03  2.5279e-02  2.7804e+00  9.5251e-03  4.3375e-03  2.3260e-03  0:04:51 1511
   490  9.7165e-03  3.3770e-03  2.5237e-02  2.8431e+00  9.7024e-03  4.3173e-03  2.3207e-03  0:03:52 1510
   491  9.8840e-03  3.3614e-03  2.5194e-02  2.8365e+00  9.8699e-03  4.2956e-03  2.3133e-03  0:08:08 1509
   492  1.0035e-02  3.3408e-03  2.5146e-02  2.9618e+00  1.0020e-02  4.2682e-03  2.3054e-03  0:06:30 1508
   493  1.0175e-02  3.3228e-03  2.5096e-02  3.0624e+00  1.0161e-02  4.2416e-03  2.2980e-03  0:05:12 1507
   494  1.0312e-02  3.3068e-03  2.5044e-02  3.2474e+00  1.0298e-02  4.2119e-03  2.2909e-03  0:04:09 1506
   495  1.0430e-02  3.2902e-03  2.4992e-02  3.4499e+00  1.0416e-02  4.1794e-03  2.2879e-03  0:03:19 1505

  iter  continuity  x-velocity  y-velocity  z-velocity      energy           k       omega     time/iter
   496  1.0533e-02  3.2752e-03  2.4940e-02  3.6949e+00  1.0519e-02  4.1531e-03  2.2808e-03  0:07:40 1504
   497  1.0617e-02  3.2609e-03  2.4886e-02  3.9240e+00  1.0602e-02  4.1407e-03  2.2723e-03  0:06:08 1503
   498  1.0694e-02  3.2466e-03  2.4830e-02  4.1433e+00  1.0679e-02  4.1224e-03  2.2692e-03  0:04:54 1502
   499  1.0767e-02  3.2353e-03  2.4774e-02  4.4281e+00  1.0752e-02  4.1030e-03  2.2604e-03  0:03:55 1501
   500  1.0828e-02  3.2228e-03  2.4716e-02  4.7305e+00  1.0813e-02  4.0791e-03  2.2585e-03  0:08:08 1500
   501  1.0892e-02  3.2122e-03  2.4657e-02  5.0739e+00  1.0876e-02  4.0517e-03  2.2513e-03  0:06:30 1499
   502  1.0950e-02  3.2033e-03  2.4596e-02  5.4561e+00  1.0934e-02  4.0241e-03  2.2486e-03  0:05:12 1498
   503  1.1008e-02  3.1922e-03  2.4533e-02  5.9192e+00  1.0992e-02  4.0014e-03  2.2425e-03  0:04:09 1497
   504  1.1060e-02  3.1847e-03  2.4468e-02  6.4180e+00  1.1045e-02  3.9756e-03  2.2351e-03  0:03:19 1496
   505  1.1105e-02  3.1753e-03  2.4401e-02  6.9368e+00  1.1089e-02  3.9475e-03  2.2281e-03  0:07:38 1495
   506  1.1141e-02  3.1685e-03  2.4331e-02  7.4141e+00  1.1126e-02  3.9210e-03  2.2186e-03  0:06:06 1494

  iter  continuity  x-velocity  y-velocity  z-velocity      energy           k       omega     time/iter
   507  1.1165e-02  3.1620e-03  2.4259e-02  7.8452e+00  1.1150e-02  3.8957e-03  2.2098e-03  0:04:53 1493
   508  1.1178e-02  3.1533e-03  2.4185e-02  8.2552e+00  1.1162e-02  3.8761e-03  2.1985e-03  0:03:54 1492
   509  1.1173e-02  3.1478e-03  2.4106e-02  8.6236e+00  1.1157e-02  3.8612e-03  2.1928e-03  0:03:07 1491
   510  1.1149e-02  3.1379e-03  2.4024e-02  8.9550e+00  1.1133e-02  3.8494e-03  2.1819e-03  0:07:28 1490
   511  1.1109e-02  3.1330e-03  2.3938e-02  9.2885e+00  1.1093e-02  3.8328e-03  2.1755e-03  0:05:58 1489
   512  1.1061e-02  3.1253e-03  2.3848e-02  9.6393e+00  1.1045e-02  3.8138e-03  2.1656e-03  0:04:46 1488
   513  1.1001e-02  3.1186e-03  2.3754e-02  1.0046e+01  1.0984e-02  3.7972e-03  2.1591e-03  0:03:49 1487
   514  1.0937e-02  3.1132e-03  2.3654e-02  1.0655e+01  1.0921e-02  3.7801e-03  2.1495e-03  0:08:00 1486
   515  1.0870e-02  3.1053e-03  2.3548e-02  1.1440e+01  1.0854e-02  3.7614e-03  2.1402e-03  0:06:24 1485
   516  1.0803e-02  3.1021e-03  2.3439e-02  1.2414e+01  1.0786e-02  3.7412e-03  2.1279e-03  0:05:07 1484
   517  1.0740e-02  3.0939e-03  2.3326e-02  1.3460e+01  1.0724e-02  3.7215e-03  2.1185e-03  0:04:05 1483

  iter  continuity  x-velocity  y-velocity  z-velocity      energy           k       omega     time/iter
   518  1.0684e-02  3.0897e-03  2.3210e-02  1.4667e+01  1.0668e-02  3.7028e-03  2.1052e-03  0:03:16 1482
   519  1.0641e-02  3.0863e-03  2.3092e-02  1.6044e+01  1.0625e-02  3.6865e-03  2.0973e-03  0:07:33 1481
   520  1.0610e-02  3.0821e-03  2.2970e-02  1.7627e+01  1.0594e-02  3.6745e-03  2.0855e-03  0:06:02 1480
   521  1.0592e-02  3.0835e-03  2.2847e-02  1.9279e+01  1.0576e-02  3.6623e-03  2.0771e-03  0:04:50 1479
   522  1.0592e-02  3.0785e-03  2.2723e-02  2.0909e+01  1.0576e-02  3.6458e-03  2.0668e-03  0:03:51 1478
   523  1.0606e-02  3.0813e-03  2.2598e-02  2.2581e+01  1.0589e-02  3.6325e-03  2.0591e-03  0:03:05 1477
   524  1.0630e-02  3.0796e-03  2.2471e-02  2.4339e+01  1.0613e-02  3.6242e-03  2.0503e-03  0:07:23 1476
   525  1.0663e-02  3.0816e-03  2.2344e-02  2.6228e+01  1.0647e-02  3.6134e-03  2.0413e-03  0:05:54 1475
   526  1.0695e-02  3.0856e-03  2.2215e-02  2.8289e+01  1.0679e-02  3.6029e-03  2.0292e-03  0:04:43 1474
   527  1.0734e-02  3.0852e-03  2.2086e-02  3.0335e+01  1.0718e-02  3.5915e-03  2.0216e-03  0:03:46 1473
   528  1.0781e-02  3.0919e-03  2.1958e-02  3.2509e+01  1.0764e-02  3.5786e-03  2.0087e-03  0:07:55 1472

  iter  continuity  x-velocity  y-velocity  z-velocity      energy           k       omega     time/iter
   529  1.0821e-02  3.0892e-03  2.1831e-02  3.4747e+01  1.0804e-02  3.5640e-03  1.9978e-03  0:06:20 1471
   530  1.0858e-02  3.0936e-03  2.1705e-02  3.7134e+01  1.0840e-02  3.5501e-03  1.9863e-03  0:05:04 1470
   531  1.0889e-02  3.0946e-03  2.1578e-02  3.9797e+01  1.0872e-02  3.5365e-03  1.9746e-03  0:04:03 1469
   532  1.0919e-02  3.0954e-03  2.1450e-02  4.2762e+01  1.0902e-02  3.5283e-03  1.9651e-03  0:03:14 1468
   533  1.0956e-02  3.1018e-03  2.1324e-02  4.5744e+01  1.0939e-02  3.5195e-03  1.9535e-03  0:07:29 1467
   534  1.0995e-02  3.0999e-03  2.1198e-02  4.8831e+01  1.0977e-02  3.5107e-03  1.9478e-03  0:05:59 1466
   535  1.1040e-02  3.1044e-03  2.1073e-02  5.2050e+01  1.1022e-02  3.5035e-03  1.9385e-03  0:04:47 1465
   536  1.1089e-02  3.1063e-03  2.0947e-02  5.5337e+01  1.1071e-02  3.4949e-03  1.9339e-03  0:03:49 1464
   537  1.1148e-02  3.1084e-03  2.0821e-02  5.8957e+01  1.1130e-02  3.4866e-03  1.9279e-03  0:03:03 1463
   538  1.1223e-02  3.1153e-03  2.0696e-02  6.2197e+01  1.1204e-02  3.4783e-03  1.9232e-03  0:07:19 1462
   539  1.1310e-02  3.1136e-03  2.0571e-02  6.5440e+01  1.1291e-02  3.4675e-03  1.9162e-03  0:05:51 1461

  iter  continuity  x-velocity  y-velocity  z-velocity      energy           k       omega     time/iter
   540  1.1412e-02  3.1193e-03  2.0447e-02  6.8370e+01  1.1393e-02  3.4567e-03  1.9110e-03  0:04:41 1460
   541  1.1527e-02  3.1234e-03  2.0323e-02  7.0809e+01  1.1508e-02  3.4482e-03  1.9053e-03  0:03:44 1459
   542  1.1653e-02  3.1239e-03  2.0199e-02  7.3032e+01  1.1634e-02  3.4399e-03  1.8999e-03  0:07:51 1458
   543  1.1786e-02  3.1330e-03  2.0076e-02  7.4920e+01  1.1767e-02  3.4349e-03  1.8953e-03  0:06:16 1457
   544  1.1911e-02  3.1322e-03  1.9954e-02  7.6855e+01  1.1892e-02  3.4310e-03  1.8879e-03  0:05:01 1456
   545  1.2032e-02  3.1355e-03  1.9833e-02  7.8166e+01  1.2013e-02  3.4271e-03  1.8855e-03  0:04:01 1455
   546  1.2144e-02  3.1465e-03  1.9711e-02  7.8973e+01  1.2124e-02  3.4228e-03  1.8794e-03  0:03:12 1454
   547  1.2249e-02  3.1423e-03  1.9591e-02  7.9545e+01  1.2229e-02  3.4188e-03  1.8726e-03  0:07:24 1453
   548  1.2345e-02  3.1487e-03  1.9471e-02  7.9660e+01  1.2324e-02  3.4153e-03  1.8676e-03  0:05:55 1452
   549  1.2424e-02  3.1563e-03  1.9350e-02  7.9146e+01  1.2403e-02  3.4115e-03  1.8589e-03  0:04:44 1451
   550  1.2488e-02  3.1524e-03  1.9232e-02  7.7993e+01  1.2467e-02  3.4111e-03  1.8552e-03  0:03:47 1450

  iter  continuity  x-velocity  y-velocity  z-velocity      energy           k       omega     time/iter
   551  1.2526e-02  3.1590e-03  1.9112e-02  7.6129e+01  1.2505e-02  3.4127e-03  1.8484e-03  0:07:51 1449
   552  1.2541e-02  3.1628e-03  1.8993e-02  7.3594e+01  1.2521e-02  3.4142e-03  1.8429e-03  0:06:17 1448
   553  1.2532e-02  3.1582e-03  1.8875e-02  7.0825e+01  1.2511e-02  3.4148e-03  1.8409e-03  0:05:01 1447
   554  1.2492e-02  3.1623e-03  1.8757e-02  6.7927e+01  1.2471e-02  3.4172e-03  1.8362e-03  0:04:01 1446
   555  1.2432e-02  3.1620e-03  1.8640e-02  6.4784e+01  1.2411e-02  3.4201e-03  1.8327e-03  0:03:13 1445
   556  1.2343e-02  3.1542e-03  1.8523e-02  6.1285e+01  1.2322e-02  3.4222e-03  1.8299e-03  0:07:23 1444
   557  1.2238e-02  3.1552e-03  1.8406e-02  5.7455e+01  1.2218e-02  3.4253e-03  1.8235e-03  0:05:54 1443
   558  1.2117e-02  3.1508e-03  1.8291e-02  5.3362e+01  1.2097e-02  3.4308e-03  1.8208e-03  0:04:43 1442
   559  1.1986e-02  3.1375e-03  1.8177e-02  4.9125e+01  1.1966e-02  3.4377e-03  1.8189e-03  0:03:46 1441
   560  1.1864e-02  3.1352e-03  1.8064e-02  4.5014e+01  1.1843e-02  3.4452e-03  1.8122e-03  0:07:49 1440
   561  1.1743e-02  3.1277e-03  1.7952e-02  4.1156e+01  1.1723e-02  3.4505e-03  1.8086e-03  0:06:15 1439

  iter  continuity  x-velocity  y-velocity  z-velocity      energy           k       omega     time/iter
   562  1.1632e-02  3.1087e-03  1.7841e-02  3.7665e+01  1.1613e-02  3.4542e-03  1.8050e-03  0:05:00 1438
   563  1.1540e-02  3.1009e-03  1.7731e-02  3.4765e+01  1.1520e-02  3.4559e-03  1.7986e-03  0:04:00 1437
   564  1.1453e-02  3.0920e-03  1.7622e-02  3.2555e+01  1.1434e-02  3.4588e-03  1.7935e-03  0:03:11 1436
   565  1.1380e-02  3.0693e-03  1.7514e-02  3.0997e+01  1.1361e-02  3.4598e-03  1.7909e-03  0:07:20 1435
   566  1.1323e-02  3.0563e-03  1.7407e-02  3.0011e+01  1.1303e-02  3.4615e-03  1.7842e-03  0:05:52 1434
   567  1.1286e-02  3.0457e-03  1.7301e-02  2.9424e+01  1.1267e-02  3.4638e-03  1.7792e-03  0:04:41 1433
   568  1.1271e-02  3.0222e-03  1.7200e-02  2.9238e+01  1.1252e-02  3.4652e-03  1.7730e-03  0:03:45 1432
   569  1.1279e-02  3.0043e-03  1.7101e-02  2.9355e+01  1.1260e-02  3.4661e-03  1.7689e-03  0:03:00 1431
   570  1.1302e-02  2.9896e-03  1.7003e-02  2.9529e+01  1.1283e-02  3.4684e-03  1.7685e-03  0:07:10 1430
   571  1.1346e-02  2.9664e-03  1.6909e-02  2.9815e+01  1.1327e-02  3.4696e-03  1.7648e-03  0:05:44 1429
   572  1.1410e-02  2.9427e-03  1.6818e-02  3.0253e+01  1.1391e-02  3.4723e-03  1.7635e-03  0:04:35 1428

  iter  continuity  x-velocity  y-velocity  z-velocity      energy           k       omega     time/iter
   573  1.1484e-02  2.9199e-03  1.6728e-02  3.0796e+01  1.1465e-02  3.4755e-03  1.7598e-03  0:03:40 1427
   574  1.1566e-02  2.8936e-03  1.6641e-02  3.1561e+01  1.1547e-02  3.4798e-03  1.7529e-03  0:07:41 1426
   575  1.1654e-02  2.8634e-03  1.6558e-02  3.2566e+01  1.1635e-02  3.4840e-03  1.7502e-03  0:06:08 1425
   576  1.1743e-02  2.8316e-03  1.6479e-02  3.3617e+01  1.1723e-02  3.4876e-03  1.7432e-03  0:04:54 1424
   577  1.1828e-02  2.8006e-03  1.6400e-02  3.4703e+01  1.1809e-02  3.4890e-03  1.7367e-03  0:03:55 1423
   578  1.1913e-02  2.7645e-03  1.6326e-02  3.5786e+01  1.1893e-02  3.4874e-03  1.7276e-03  0:03:08 1422
   579  1.1990e-02  2.7343e-03  1.6252e-02  3.6806e+01  1.1970e-02  3.4879e-03  1.7198e-03  0:07:15 1421
   580  1.2054e-02  2.7086e-03  1.6181e-02  3.7674e+01  1.2034e-02  3.4881e-03  1.7094e-03  0:05:47 1420
   581  1.2103e-02  2.6854e-03  1.6110e-02  3.8491e+01  1.2084e-02  3.4856e-03  1.7051e-03  0:04:38 1419
   582  1.2131e-02  2.6662e-03  1.6041e-02  3.9194e+01  1.2111e-02  3.4822e-03  1.6946e-03  0:03:42 1418
   583  1.2145e-02  2.6520e-03  1.5976e-02  3.9584e+01  1.2126e-02  3.4793e-03  1.6827e-03  0:07:41 1417

  iter  continuity  x-velocity  y-velocity  z-velocity      energy           k       omega     time/iter
   584  1.2135e-02  2.6417e-03  1.5914e-02  3.9658e+01  1.2115e-02  3.4784e-03  1.6726e-03  0:06:08 1416
   585  1.2104e-02  2.6321e-03  1.5858e-02  3.9461e+01  1.2085e-02  3.4776e-03  1.6686e-03  0:04:55 1415
   586  1.2054e-02  2.6222e-03  1.5803e-02  3.9043e+01  1.2035e-02  3.4764e-03  1.6587e-03  0:03:55 1414
   587  1.1982e-02  2.6134e-03  1.5748e-02  3.8405e+01  1.1962e-02  3.4772e-03  1.6503e-03  0:03:08 1413
   588  1.1884e-02  2.6037e-03  1.5691e-02  3.7634e+01  1.1865e-02  3.4808e-03  1.6439e-03  0:07:13 1412
   589  1.1763e-02  2.5950e-03  1.5631e-02  3.6618e+01  1.1744e-02  3.4848e-03  1.6340e-03  0:05:46 1411
   590  1.1619e-02  2.5848e-03  1.5570e-02  3.5282e+01  1.1599e-02  3.4842e-03  1.6281e-03  0:04:37 1410
   591  1.1455e-02  2.5745e-03  1.5510e-02  3.3629e+01  1.1436e-02  3.4838e-03  1.6204e-03  0:03:41 1409
   592  1.1273e-02  2.5612e-03  1.5453e-02  3.1815e+01  1.1253e-02  3.4830e-03  1.6129e-03  0:02:57 1408
   593  1.1073e-02  2.5467e-03  1.5401e-02  2.9863e+01  1.1053e-02  3.4804e-03  1.6070e-03  0:07:03 1407
   594  1.0853e-02  2.5321e-03  1.5356e-02  2.7805e+01  1.0834e-02  3.4744e-03  1.6051e-03  0:05:38 1406

  iter  continuity  x-velocity  y-velocity  z-velocity      energy           k       omega     time/iter
   595  1.0618e-02  2.5193e-03  1.5317e-02  2.5684e+01  1.0599e-02  3.4669e-03  1.6019e-03  0:04:30 1405
   596  1.0371e-02  2.5080e-03  1.5285e-02  2.3586e+01  1.0352e-02  3.4611e-03  1.5958e-03  0:03:36 1404
   597  1.0117e-02  2.4999e-03  1.5262e-02  2.1649e+01  1.0099e-02  3.4514e-03  1.5930e-03  0:07:33 1403
   598  9.8647e-03  2.4960e-03  1.5249e-02  2.0052e+01  9.8465e-03  3.4404e-03  1.5882e-03  0:06:02 1402
   599  9.6163e-03  2.4950e-03  1.5245e-02  1.8769e+01  9.5984e-03  3.4279e-03  1.5860e-03  0:04:50 1401
   600  9.3807e-03  2.4975e-03  1.5251e-02  1.7692e+01  9.3631e-03  3.4147e-03  1.5824e-03  0:03:52 1400
   601  9.1667e-03  2.5034e-03  1.5266e-02  1.6904e+01  9.1495e-03  3.4024e-03  1.5798e-03  0:03:05 1399
   602  8.9806e-03  2.5110e-03  1.5278e-02  1.6321e+01  8.9636e-03  3.3914e-03  1.5793e-03  0:07:08 1398
   603  8.8317e-03  2.5212e-03  1.5301e-02  1.6206e+01  8.8151e-03  3.3802e-03  1.5786e-03  0:05:42 1397
   604  8.7227e-03  2.5342e-03  1.5328e-02  1.6557e+01  8.7062e-03  3.3707e-03  1.5742e-03  0:04:33 1396
   605  8.6590e-03  2.5479e-03  1.5344e-02  1.7045e+01  8.6427e-03  3.3618e-03  1.5718e-03  0:03:38 1395

  iter  continuity  x-velocity  y-velocity  z-velocity      energy           k       omega     time/iter
   606  8.6432e-03  2.5657e-03  1.5357e-02  1.7721e+01  8.6269e-03  3.3534e-03  1.5691e-03  0:07:33 1394
   607  8.6667e-03  2.5826e-03  1.5368e-02  1.8397e+01  8.6503e-03  3.3438e-03  1.5660e-03  0:06:02 1393
   608  8.7215e-03  2.5953e-03  1.5383e-02  1.8885e+01  8.7048e-03  3.3343e-03  1.5637e-03  0:04:50 1392
   609  8.8143e-03  2.6114e-03  1.5388e-02  1.9196e+01  8.7975e-03  3.3262e-03  1.5616e-03  0:03:52 1391
   610  8.9438e-03  2.6303e-03  1.5373e-02  1.9317e+01  8.9267e-03  3.3160e-03  1.5597e-03  0:03:05 1390
   611  9.1023e-03  2.6381e-03  1.5328e-02  1.9134e+01  9.0848e-03  3.3058e-03  1.5559e-03  0:07:06 1389
   612  9.2875e-03  2.6492e-03  1.5270e-02  1.8636e+01  9.2696e-03  3.2963e-03  1.5490e-03  0:05:40 1388
   613  9.4947e-03  2.6629e-03  1.5219e-02  1.7991e+01  9.4762e-03  3.2864e-03  1.5439e-03  0:04:32 1387
   614  9.7180e-03  2.6718e-03  1.5158e-02  1.7503e+01  9.6990e-03  3.2765e-03  1.5385e-03  0:03:38 1386
   615  9.9715e-03  2.6825e-03  1.5110e-02  1.7275e+01  9.9519e-03  3.2652e-03  1.5355e-03  0:02:54 1385
   616  1.0238e-02  2.6883e-03  1.5056e-02  1.7682e+01  1.0218e-02  3.2545e-03  1.5306e-03  0:06:56 1384

  iter  continuity  x-velocity  y-velocity  z-velocity      energy           k       omega     time/iter
   617  1.0512e-02  2.6874e-03  1.4966e-02  1.8825e+01  1.0491e-02  3.2441e-03  1.5263e-03  0:05:32 1383
   618  1.0795e-02  2.6867e-03  1.4860e-02  2.0745e+01  1.0773e-02  3.2329e-03  1.5197e-03  0:04:26 1382
   619  1.1073e-02  2.6882e-03  1.4769e-02  2.3553e+01  1.1051e-02  3.2244e-03  1.5136e-03  0:03:32 1381
   620  1.1323e-02  2.6833e-03  1.4694e-02  2.6824e+01  1.1300e-02  3.2169e-03  1.5101e-03  0:07:26 1380
   621  1.1535e-02  2.6826e-03  1.4571e-02  3.0445e+01  1.1511e-02  3.2105e-03  1.5066e-03  0:05:56 1379
   622  1.1721e-02  2.6801e-03  1.4463e-02  3.4181e+01  1.1697e-02  3.2047e-03  1.5049e-03  0:04:45 1378
   623  1.1888e-02  2.6742e-03  1.4359e-02  3.8362e+01  1.1864e-02  3.1993e-03  1.5008e-03  0:03:48 1377
   624  1.2025e-02  2.6659e-03  1.4269e-02  4.2666e+01  1.2000e-02  3.1963e-03  1.4983e-03  0:03:02 1376
   625  1.2147e-02  2.6539e-03  1.4183e-02  4.6993e+01  1.2121e-02  3.1925e-03  1.4968e-03  0:07:01 1375
   626  1.2248e-02  2.6471e-03  1.4088e-02  5.1301e+01  1.2223e-02  3.1881e-03  1.4965e-03  0:05:36 1374
[...]
  1852  9.5957e-04  8.0863e-04  4.9913e-03  4.3642e-01  9.5760e-04  1.3993e-03  7.9466e-04  0:00:23  148
  1853  9.5320e-04  8.0850e-04  4.9950e-03  4.3009e-01  9.5116e-04  1.4043e-03  7.9569e-04  0:00:18  147
  1854  9.4790e-04  8.0838e-04  4.9998e-03  4.2388e-01  9.4580e-04  1.4088e-03  7.9670e-04  0:00:43  146
  1855  9.4301e-04  8.0825e-04  5.0049e-03  4.2296e-01  9.4084e-04  1.4133e-03  8.0049e-04  0:00:35  145
  1856  9.3852e-04  8.0806e-04  5.0100e-03  4.2437e-01  9.3630e-04  1.4179e-03  8.0500e-04  0:00:27  144
  1857  9.3419e-04  8.0783e-04  5.0149e-03  4.2462e-01  9.3193e-04  1.4224e-03  8.0829e-04  0:00:22  143
  1858  9.2990e-04  8.0750e-04  5.0191e-03  4.2964e-01  9.2758e-04  1.4265e-03  8.1003e-04  0:00:17  142
  1859  9.2463e-04  8.0708e-04  5.0229e-03  4.2393e-01  9.2226e-04  1.4301e-03  8.1116e-04  0:00:42  141

  iter  continuity  x-velocity  y-velocity  z-velocity      energy           k       omega     time/iter
  1860  9.1905e-04  8.0650e-04  5.0263e-03  4.1677e-01  9.1663e-04  1.4336e-03  8.1454e-04  0:00:33  140
  1861  9.1476e-04  8.0575e-04  5.0294e-03  4.2002e-01  9.1229e-04  1.4374e-03  8.1852e-04  0:00:26  139
  1862  9.1268e-04  8.0456e-04  5.0323e-03  4.3947e-01  9.1017e-04  1.4415e-03  8.2116e-04  0:00:21  138
  1863  9.1256e-04  8.0356e-04  5.0352e-03  4.7281e-01  9.1001e-04  1.4454e-03  8.2296e-04  0:00:17  137
  1864  9.1326e-04  8.0264e-04  5.0385e-03  5.0272e-01  9.1070e-04  1.4491e-03  8.2421e-04  0:00:40  136
  1865  9.1612e-04  8.0209e-04  5.0426e-03  5.1758e-01  9.1353e-04  1.4528e-03  8.2629e-04  0:00:32  135
  1866  9.2289e-04  8.0171e-04  5.0473e-03  5.2406e-01  9.2030e-04  1.4559e-03  8.3006e-04  0:00:26  134
  1867  9.3269e-04  8.0132e-04  5.0528e-03  5.2326e-01  9.3011e-04  1.4600e-03  8.3310e-04  0:00:20  133
  1868  9.3054e-04  8.0129e-04  5.0590e-03  5.1645e-01  9.2793e-04  1.4642e-03  8.3419e-04  0:00:16  132
  1869  9.2645e-04  8.0149e-04  5.0659e-03  5.0366e-01  9.2380e-04  1.4675e-03  8.3461e-04  0:00:39  131
  1870  9.2482e-04  8.0179e-04  5.0734e-03  4.8680e-01  9.2214e-04  1.4697e-03  8.3494e-04  0:00:31  130

  iter  continuity  x-velocity  y-velocity  z-velocity      energy           k       omega     time/iter
  1871  9.2592e-04  8.0225e-04  5.0816e-03  4.6980e-01  9.2323e-04  1.4713e-03  8.3950e-04  0:00:25  129
  1872  9.2830e-04  8.0278e-04  5.0906e-03  4.4886e-01  9.2560e-04  1.4730e-03  8.4323e-04  0:00:19  128
  1873  9.3028e-04  8.0316e-04  5.0998e-03  4.3759e-01  9.2757e-04  1.4751e-03  8.4495e-04  0:00:15  127
  1874  9.2853e-04  8.0355e-04  5.1087e-03  4.3664e-01  9.2581e-04  1.4774e-03  8.4547e-04  0:00:37  126
  1875  9.1892e-04  8.0396e-04  5.1174e-03  4.4555e-01  9.1616e-04  1.4795e-03  8.4494e-04  0:00:30  125
  1876  9.1581e-04  8.0450e-04  5.1261e-03  4.6346e-01  9.1303e-04  1.4820e-03  8.4755e-04  0:00:24  124
  1877  9.1249e-04  8.0527e-04  5.1349e-03  4.8769e-01  9.0969e-04  1.4849e-03  8.5092e-04  0:00:19  123
  1878  9.1151e-04  8.0604e-04  5.1438e-03  5.2047e-01  9.0871e-04  1.4882e-03  8.5441e-04  0:00:15  122
  1879  9.1358e-04  8.0693e-04  5.1524e-03  5.6328e-01  9.1078e-04  1.4910e-03  8.5656e-04  0:00:36  121
  1880  9.1880e-04  8.0780e-04  5.1612e-03  6.1437e-01  9.1603e-04  1.4939e-03  8.5783e-04  0:00:29  120
  1881  9.2538e-04  8.0879e-04  5.1703e-03  6.6597e-01  9.2264e-04  1.4964e-03  8.5852e-04  0:00:23  119

  iter  continuity  x-velocity  y-velocity  z-velocity      energy           k       omega     time/iter
  1882  9.3203e-04  8.0988e-04  5.1797e-03  7.1573e-01  9.2932e-04  1.4989e-03  8.6180e-04  0:00:18  118
  1883  9.3940e-04  8.1109e-04  5.1901e-03  7.6337e-01  9.3673e-04  1.5020e-03  8.6395e-04  0:00:14  117
  1884  9.4698e-04  8.1227e-04  5.2005e-03  8.1261e-01  9.4436e-04  1.5047e-03  8.6749e-04  0:00:35  116
  1885  9.5375e-04  8.1348e-04  5.2084e-03  8.6083e-01  9.5117e-04  1.5069e-03  8.6995e-04  0:00:27  115
  1886  9.6020e-04  8.1466e-04  5.2143e-03  9.0902e-01  9.5767e-04  1.5088e-03  8.7115e-04  0:00:22  114
  1887  9.6675e-04  8.1592e-04  5.2200e-03  9.5954e-01  9.6426e-04  1.5107e-03  8.7330e-04  0:00:17  113
  1888  9.7093e-04  8.1730e-04  5.2260e-03  1.0101e+00  9.6847e-04  1.5126e-03  8.7672e-04  0:00:14  112
  1889  9.7300e-04  8.1877e-04  5.2320e-03  1.0608e+00  9.7056e-04  1.5140e-03  8.7855e-04  0:00:11  111
  1890  9.7265e-04  8.2033e-04  5.2371e-03  1.1100e+00  9.7022e-04  1.5160e-03  8.7965e-04  0:00:31  110
  1891  9.6980e-04  8.2202e-04  5.2430e-03  1.1575e+00  9.6736e-04  1.5179e-03  8.7998e-04  0:00:24  109
  1892  9.6593e-04  8.2380e-04  5.2505e-03  1.2029e+00  9.6347e-04  1.5194e-03  8.8083e-04  0:00:19  108

  iter  continuity  x-velocity  y-velocity  z-velocity      energy           k       omega     time/iter
  1893  9.6082e-04  8.2568e-04  5.2594e-03  1.2462e+00  9.5834e-04  1.5212e-03  8.8283e-04  0:00:15  107
  1894  9.5336e-04  8.2770e-04  5.2695e-03  1.2855e+00  9.5084e-04  1.5229e-03  8.8524e-04  0:00:12  106
  1895  9.4583e-04  8.2983e-04  5.2805e-03  1.3212e+00  9.4327e-04  1.5244e-03  8.8680e-04  0:00:31  105
  1896  9.3990e-04  8.3212e-04  5.2920e-03  1.3527e+00  9.3731e-04  1.5255e-03  8.8879e-04  0:00:24  104
  1897  9.3563e-04  8.3458e-04  5.3042e-03  1.3804e+00  9.3300e-04  1.5262e-03  8.9132e-04  0:00:19  103
  1898  9.3388e-04  8.3711e-04  5.3168e-03  1.4017e+00  9.3122e-04  1.5277e-03  8.9348e-04  0:00:15  102
  1899  9.3423e-04  8.3982e-04  5.3289e-03  1.4208e+00  9.3155e-04  1.5288e-03  8.9584e-04  0:00:12  101
  1900  9.3627e-04  8.4273e-04  5.3404e-03  1.4357e+00  9.3357e-04  1.5298e-03  8.9819e-04  0:00:30  100
  1901  9.3975e-04  8.4584e-04  5.3516e-03  1.4453e+00  9.3704e-04  1.5303e-03  9.0044e-04  0:00:23   99
  1902  9.4343e-04  8.4910e-04  5.3625e-03  1.4535e+00  9.4071e-04  1.5304e-03  9.0292e-04  0:00:19   98
  1903  9.4760e-04  8.5251e-04  5.3732e-03  1.4628e+00  9.4487e-04  1.5306e-03  9.0560e-04  0:00:15   97

  iter  continuity  x-velocity  y-velocity  z-velocity      energy           k       omega     time/iter
  1904  9.4993e-04  8.5600e-04  5.3838e-03  1.4791e+00  9.4719e-04  1.5303e-03  9.0811e-04  0:00:12   96
  1905  9.5039e-04  8.5965e-04  5.3939e-03  1.4898e+00  9.4763e-04  1.5300e-03  9.1071e-04  0:00:28   95
  1906  9.5049e-04  8.6343e-04  5.4039e-03  1.5083e+00  9.4771e-04  1.5293e-03  9.1304e-04  0:00:22   94
  1907  9.5036e-04  8.6712e-04  5.4137e-03  1.5266e+00  9.4756e-04  1.5286e-03  9.1580e-04  0:00:18   93
  1908  9.4996e-04  8.7087e-04  5.4237e-03  1.5451e+00  9.4714e-04  1.5289e-03  9.1949e-04  0:00:14   92
  1909  9.4901e-04  8.7469e-04  5.4339e-03  1.5650e+00  9.4617e-04  1.5294e-03  9.2308e-04  0:00:11   91
  1910  9.4720e-04  8.7847e-04  5.4441e-03  1.5886e+00  9.4433e-04  1.5296e-03  9.2599e-04  0:00:27   90
  1911  9.4524e-04  8.8226e-04  5.4540e-03  1.6110e+00  9.4234e-04  1.5293e-03  9.2883e-04  0:00:21   89
  1912  9.4267e-04  8.8606e-04  5.4639e-03  1.6308e+00  9.3975e-04  1.5294e-03  9.3089e-04  0:00:17   88
  1913  9.3819e-04  8.8988e-04  5.4740e-03  1.6476e+00  9.3524e-04  1.5294e-03  9.3427e-04  0:00:13   87
  1914  9.3248e-04  8.9378e-04  5.4841e-03  1.6615e+00  9.2950e-04  1.5303e-03  9.3880e-04  0:00:10   86

  iter  continuity  x-velocity  y-velocity  z-velocity      energy           k       omega     time/iter
  1915  9.2578e-04  8.9756e-04  5.4944e-03  1.6636e+00  9.2276e-04  1.5307e-03  9.4142e-04  0:00:08   85
  1916  9.1810e-04  9.0126e-04  5.5044e-03  1.6655e+00  9.1503e-04  1.5305e-03  9.4454e-04  0:00:23   84
  1917  9.0965e-04  9.0500e-04  5.5143e-03  1.6537e+00  9.0654e-04  1.5297e-03  9.4685e-04  0:00:18   83
  1918  9.0100e-04  9.0883e-04  5.5243e-03  1.6353e+00  8.9785e-04  1.5287e-03  9.5041e-04  0:00:15   82
  1919  8.9407e-04  9.1271e-04  5.5342e-03  1.5961e+00  8.9086e-04  1.5286e-03  9.5352e-04  0:00:12   81
  1920  8.8628e-04  9.1645e-04  5.5441e-03  1.5551e+00  8.8303e-04  1.5283e-03  9.5608e-04  0:00:09   80
  1921  8.7794e-04  9.2006e-04  5.5540e-03  1.4987e+00  8.7464e-04  1.5276e-03  9.5768e-04  0:00:23   79
  1922  8.6970e-04  9.2377e-04  5.5637e-03  1.4318e+00  8.6635e-04  1.5268e-03  9.6028e-04  0:00:18   78
  1923  8.6204e-04  9.2756e-04  5.5734e-03  1.3601e+00  8.5863e-04  1.5260e-03  9.6443e-04  0:00:14   77
  1924  8.5568e-04  9.3132e-04  5.5831e-03  1.2940e+00  8.5222e-04  1.5256e-03  9.6734e-04  0:00:11   76
  1925  8.5030e-04  9.3497e-04  5.5927e-03  1.2315e+00  8.4680e-04  1.5253e-03  9.7022e-04  0:00:09   75

  iter  continuity  x-velocity  y-velocity  z-velocity      energy           k       omega     time/iter
  1926  8.4585e-04  9.3832e-04  5.6024e-03  1.1584e+00  8.4231e-04  1.5249e-03  9.7167e-04  0:00:22   74
  1927  8.4252e-04  9.4154e-04  5.6121e-03  1.0858e+00  8.3895e-04  1.5240e-03  9.7386e-04  0:00:17   73
  1928  8.4024e-04  9.4478e-04  5.6217e-03  1.0189e+00  8.3664e-04  1.5241e-03  9.8714e-04  0:00:14   72
  1929  8.3901e-04  9.4803e-04  5.6314e-03  9.5279e-01  8.3538e-04  1.5225e-03  9.8748e-04  0:00:11   71
  1930  8.3869e-04  9.5124e-04  5.6412e-03  8.9753e-01  8.3503e-04  1.5215e-03  9.8682e-04  0:00:08   70
  1931  8.3906e-04  9.5446e-04  5.6519e-03  8.4405e-01  8.3538e-04  1.5208e-03  9.8656e-04  0:00:07   69
  1932  8.4028e-04  9.5784e-04  5.6672e-03  7.8705e-01  8.3658e-04  1.5203e-03  9.8842e-04  0:00:19   68
  1933  8.4189e-04  9.6129e-04  5.6823e-03  7.3314e-01  8.3817e-04  1.5200e-03  9.9105e-04  0:00:15   67
  1934  8.4384e-04  9.6479e-04  5.6973e-03  6.8267e-01  8.4009e-04  1.5198e-03  9.9230e-04  0:00:12   66
  1935  8.4599e-04  9.6836e-04  5.7128e-03  6.3522e-01  8.4222e-04  1.5194e-03  9.9391e-04  0:00:09   65
  1936  8.4826e-04  9.7206e-04  5.7283e-03  5.9251e-01  8.4447e-04  1.5184e-03  9.9457e-04  0:00:07   64

  iter  continuity  x-velocity  y-velocity  z-velocity      energy           k       omega     time/iter
  1937  8.5008e-04  9.7553e-04  5.7434e-03  5.5684e-01  8.4627e-04  1.5173e-03  9.9671e-04  0:00:06   63
  1938  8.5155e-04  9.7900e-04  5.7580e-03  5.2041e-01  8.4773e-04  1.5165e-03  9.9896e-04  0:00:05   62
  1939  8.5266e-04  9.8260e-04  5.7725e-03  4.8526e-01  8.4883e-04  1.5160e-03  1.0006e-03  0:00:04   61
  1940  8.5351e-04  9.8623e-04  5.7871e-03  4.5301e-01  8.4966e-04  1.5155e-03  1.0013e-03  0:00:03   60
  1941  8.5371e-04  9.8979e-04  5.8018e-03  4.2744e-01  8.4985e-04  1.5145e-03  1.0026e-03  0:00:02   59
  1942  8.5308e-04  9.9319e-04  5.8163e-03  4.0833e-01  8.4921e-04  1.5141e-03  1.0064e-03  0:00:13   58
  1943  8.5198e-04  9.9661e-04  5.8310e-03  3.9802e-01  8.4810e-04  1.5134e-03  1.0096e-03  0:00:10   57
  1944  8.5059e-04  1.0000e-03  5.8459e-03  3.9469e-01  8.4670e-04  1.5134e-03  1.0108e-03  0:00:08   56
  1945  8.4898e-04  1.0034e-03  5.8610e-03  4.0005e-01  8.4507e-04  1.5135e-03  1.0099e-03  0:00:06   55
  1946  8.4713e-04  1.0068e-03  5.8762e-03  4.1205e-01  8.4320e-04  1.5130e-03  1.0102e-03  0:00:05   54
  1947  8.4505e-04  1.0102e-03  5.8916e-03  4.3091e-01  8.4111e-04  1.5129e-03  1.0112e-03  0:00:04   53

  iter  continuity  x-velocity  y-velocity  z-velocity      energy           k       omega     time/iter
  1948  8.4292e-04  1.0136e-03  5.9069e-03  4.5856e-01  8.3897e-04  1.5133e-03  1.0134e-03  0:00:03   52
  1949  8.4098e-04  1.0171e-03  5.9225e-03  4.9031e-01  8.3701e-04  1.5141e-03  1.0141e-03  0:00:02   51
  1950  8.3962e-04  1.0205e-03  5.9382e-03  5.2300e-01  8.3564e-04  1.5153e-03  1.0138e-03  0:00:02   50
  1951  8.3802e-04  1.0240e-03  5.9539e-03  5.5593e-01  8.3403e-04  1.5162e-03  1.0152e-03  0:00:11   49
  1952  8.3619e-04  1.0275e-03  5.9699e-03  5.8974e-01  8.3219e-04  1.5162e-03  1.0185e-03  0:00:09   48
  1953  8.3461e-04  1.0309e-03  5.9860e-03  6.2650e-01  8.3061e-04  1.5160e-03  1.0202e-03  0:00:07   47
  1954  8.3357e-04  1.0344e-03  6.0021e-03  6.6400e-01  8.2956e-04  1.5162e-03  1.0211e-03  0:00:05   46
  1955  8.3288e-04  1.0379e-03  6.0183e-03  6.9607e-01  8.2885e-04  1.5164e-03  1.0217e-03  0:00:04   45
  1956  8.3236e-04  1.0414e-03  6.0342e-03  7.2245e-01  8.2832e-04  1.5168e-03  1.0236e-03  0:00:03   44
  1957  8.3196e-04  1.0450e-03  6.0503e-03  7.4141e-01  8.2791e-04  1.5163e-03  1.0262e-03  0:00:03   43
  1958  8.3140e-04  1.0484e-03  6.0666e-03  7.5686e-01  8.2734e-04  1.5168e-03  1.0284e-03  0:00:02   42

  iter  continuity  x-velocity  y-velocity  z-velocity      energy           k       omega     time/iter
  1959  8.3087e-04  1.0520e-03  6.0834e-03  7.6361e-01  8.2679e-04  1.5168e-03  1.0295e-03  0:00:02   41
  1960  8.3027e-04  1.0555e-03  6.1013e-03  7.6141e-01  8.2616e-04  1.5170e-03  1.0304e-03  0:00:09   40
  1961  8.2976e-04  1.0593e-03  6.1213e-03  7.5669e-01  8.2562e-04  1.5168e-03  1.0336e-03  0:00:07   39
  1962  8.2925e-04  1.0630e-03  6.1434e-03  7.5314e-01  8.2510e-04  1.5172e-03  1.0365e-03  0:00:06   38
  1963  8.2835e-04  1.0667e-03  6.1622e-03  7.4630e-01  8.2419e-04  1.5180e-03  1.0387e-03  0:00:04   37
  1964  8.2697e-04  1.0702e-03  6.1738e-03  7.3600e-01  8.2283e-04  1.5183e-03  1.0398e-03  0:00:03   36
  1965  8.2547e-04  1.0737e-03  6.1851e-03  7.2229e-01  8.2135e-04  1.5185e-03  1.0395e-03  0:00:03   35
  1966  8.2422e-04  1.0771e-03  6.1981e-03  7.0696e-01  8.2011e-04  1.5192e-03  1.0430e-03  0:00:02   34
  1967  8.2313e-04  1.0805e-03  6.2131e-03  6.9316e-01  8.1902e-04  1.5206e-03  1.0454e-03  0:00:02   33
  1968  8.2185e-04  1.0838e-03  6.2260e-03  6.8114e-01  8.1777e-04  1.5224e-03  1.0473e-03  0:00:01   32
  1969  8.2052e-04  1.0870e-03  6.2374e-03  6.6854e-01  8.1644e-04  1.5240e-03  1.0500e-03  0:00:07   31

  iter  continuity  x-velocity  y-velocity  z-velocity      energy           k       omega     time/iter
  1970  8.1925e-04  1.0902e-03  6.2490e-03  6.5774e-01  8.1519e-04  1.5253e-03  1.0534e-03  0:00:06   30
  1971  8.1841e-04  1.0932e-03  6.2616e-03  6.4822e-01  8.1436e-04  1.5266e-03  1.0582e-03  0:00:04   29
  1972  8.1774e-04  1.0960e-03  6.2752e-03  6.3743e-01  8.1371e-04  1.5280e-03  1.0609e-03  0:00:03   28
  1973  8.1757e-04  1.0987e-03  6.2896e-03  6.2543e-01  8.1354e-04  1.5297e-03  1.0622e-03  0:00:03   27
  1974  8.1769e-04  1.1014e-03  6.3037e-03  6.1359e-01  8.1365e-04  1.5317e-03  1.0636e-03  0:00:02   26
  1975  8.1822e-04  1.1040e-03  6.3174e-03  6.0495e-01  8.1417e-04  1.5341e-03  1.0670e-03  0:00:02   25
  1976  8.1890e-04  1.1065e-03  6.3304e-03  6.0252e-01  8.1484e-04  1.5372e-03  1.0704e-03  0:00:01   24
  1977  8.1997e-04  1.1090e-03  6.3427e-03  6.0342e-01  8.1590e-04  1.5400e-03  1.0708e-03  0:00:01   23
  1978  8.2263e-04  1.1115e-03  6.3544e-03  6.0729e-01  8.1856e-04  1.5423e-03  1.0695e-03  0:00:05   22
  1979  8.2432e-04  1.1141e-03  6.3653e-03  6.1300e-01  8.2023e-04  1.5450e-03  1.0684e-03  0:00:04   21
  1980  8.2546e-04  1.1166e-03  6.3754e-03  6.2183e-01  8.2137e-04  1.5484e-03  1.0700e-03  0:00:03   20

  iter  continuity  x-velocity  y-velocity  z-velocity      energy           k       omega     time/iter
  1981  8.2671e-04  1.1190e-03  6.3850e-03  6.3007e-01  8.2260e-04  1.5517e-03  1.0718e-03  0:00:02   19
  1982  8.2809e-04  1.1214e-03  6.3940e-03  6.3823e-01  8.2399e-04  1.5551e-03  1.0729e-03  0:00:02   18
  1983  8.2990e-04  1.1238e-03  6.4027e-03  6.4742e-01  8.2579e-04  1.5583e-03  1.0735e-03  0:00:01   17
  1984  8.3211e-04  1.1261e-03  6.4108e-03  6.5775e-01  8.2802e-04  1.5621e-03  1.0743e-03  0:00:01   16
  1985  8.3483e-04  1.1284e-03  6.4184e-03  6.7017e-01  8.3076e-04  1.5668e-03  1.0778e-03  0:00:01   15
  1986  8.3789e-04  1.1306e-03  6.4257e-03  6.8155e-01  8.3383e-04  1.5711e-03  1.0804e-03  0:00:01   14
  1987  8.4101e-04  1.1326e-03  6.4322e-03  6.9196e-01  8.3697e-04  1.5750e-03  1.0792e-03  0:00:03   13
  1988  8.4418e-04  1.1346e-03  6.4382e-03  7.0075e-01  8.4016e-04  1.5788e-03  1.0793e-03  0:00:02   12
  1989  8.4733e-04  1.1365e-03  6.4437e-03  7.1003e-01  8.4332e-04  1.5835e-03  1.0785e-03  0:00:02   11
  1990  8.5084e-04  1.1385e-03  6.4487e-03  7.1720e-01  8.4685e-04  1.5884e-03  1.0806e-03  0:00:01   10
  1991  8.5457e-04  1.1402e-03  6.4533e-03  7.1799e-01  8.5060e-04  1.5934e-03  1.0827e-03  0:00:01    9

  iter  continuity  x-velocity  y-velocity  z-velocity      energy           k       omega     time/iter
  1992  8.5833e-04  1.1419e-03  6.4573e-03  7.1345e-01  8.5437e-04  1.5981e-03  1.0828e-03  0:00:01    8
  1993  8.6215e-04  1.1434e-03  6.4611e-03  7.0502e-01  8.5822e-04  1.6034e-03  1.0854e-03  0:00:00    7
  1994  8.6669e-04  1.1448e-03  6.4644e-03  6.9446e-01  8.6278e-04  1.6090e-03  1.0870e-03  0:00:01    6
  1995  8.7194e-04  1.1461e-03  6.4674e-03  6.8561e-01  8.6805e-04  1.6144e-03  1.0888e-03  0:00:01    5
  1996  8.7773e-04  1.1473e-03  6.4696e-03  6.8350e-01  8.7388e-04  1.6195e-03  1.0905e-03  0:00:01    4
  1997  8.8393e-04  1.1483e-03  6.4712e-03  6.8326e-01  8.8012e-04  1.6242e-03  1.0921e-03  0:00:00    3
  1998  8.9119e-04  1.1493e-03  6.4720e-03  6.7544e-01  8.8742e-04  1.6294e-03  1.0934e-03  0:00:00    2
  1999  8.9967e-04  1.1500e-03  6.4723e-03  6.6882e-01  8.9594e-04  1.6345e-03  1.0941e-03  0:00:00    1
  2000  9.0909e-04  1.1505e-03  6.4718e-03  6.6377e-01  9.0541e-04  1.6402e-03  1.0953e-03  0:00:00    0

> 
adjoint/                parallel/               server/
define/                 parametric-study/       solve/
display/                plot/                   surface/
exit                    preferences/            turbo-workflow/
file/                   print-license-usage     views/
mesh/                   report/

> /file/write-case-data project1
Fast-loading "C:\PROGRA~1\ANSYSI~1\v231\fluent\fluent23.1.0\\addons\afd\lib\hdfio.bin"
Done.

Writing to Engs-30669:"C:\Users\kebl7595\Desktop\CFD\Runs\Flap\Re 3e5\flap test -20 degree\project1.cas.h5" in NODE0 mode and compression level 1 ...
       24072 cells,     1 zone  ...
       80918 faces,     7 zones ...
       33000 nodes,     1 zone  ...
  Done.
Done.

Writing to Engs-30669:"C:\Users\kebl7595\Desktop\CFD\Runs\Flap\Re 3e5\flap test -20 degree\project1.dat.h5" in NODE0 mode and compression level 1 ...
  Writing results.
Done.

> /file/export/ascii "./surface.dat" wing () no pressure mach-number quit no

Writing "./surface.dat"...

Writing information to ascii file ...
Done.


> /report/forces/wall-forces y -0.35837 0.93358 0 y "Lift"

> /report/forces/wall-forces y 0.93358 0.35837 0 y "Drag"

> ;/exit

> (cx-gui-do cx-set-list-tree-selections "NavigationPane*Frame2*Table1*List_Tree2" (list "Results|Graphics|Pathlines"))
(cx-gui-do cx-set-list-tree-selections "NavigationPane*Frame2*Table1*List_Tree2" (list "Results|Graphics|Pathlines"))
(cx-gui-do cx-activate-item "NavigationPane*Frame2*Table1*List_Tree2")
(cx-gui-do cx-set-list-tree-selections "NavigationPane*Frame2*Table1*List_Tree2" (list "Results|Graphics|Pathlines"))
(cx-gui-do cx-set-list-selections "Pathlines*Frame4*List3(Release from Surfaces)" '( 3))
(cx-gui-do cx-activate-item "Pathlines*Frame4*List3(Release from Surfaces)")
(cx-gui-do cx-activate-item "Pathlines*PanelButtons*PushButton1(OK)")

number tracked = 8024, escaped = 5993, incomplete = 2031
(cx-gui-do cx-activate-item "Pathlines*PanelButtons*PushButton2(Cancel)")
(cx-gui-do cx-activate-item "ToolBar*Pointer*translate")
(cx-use-window-id 51)
(dolly-camera -0.116199 -0.00632915 0)
(cx-use-window-id 51)
(dolly-camera -0.0213033 -0.00379748 0)
(cx-use-window-id 51)
(dolly-camera -0.0233003 0.00775318 0)
(cx-use-window-id 51)
(dolly-camera 0.0105364 0.0267122 0)
(cx-use-window-id 51)
(dolly-camera -0.00954676 0.012942 0)
(cx-use-window-id 51)
(dolly-camera 0.0266356 -0.00306097 0)
(cx-gui-do cx-activate-item "ToolBar*Copy*savepicture")
(cx-gui-do cx-activate-item "Save Picture*PanelButtons*PushButton1(OK)")
(cx-gui-do cx-set-file-dialog-entries "Select File" '( "flap -20 degrees.png") "Hardcopy Files (*.png)")
(cx-gui-do cx-activate-item "Save Picture*PanelButtons*PushButton2(Cancel)")
/exit y

Posting ANSYS Product Improvement Program performance data 
Done.
Auto-Transcript Stop Time:  12:18:07, 22 May 2024 GMT Daylight Time 
Total Transcript Time: 30 Minute 20 Second.
