Auto-Transcript Start Time:  10:16:11, 21 May 2024 GMT Daylight Time 
Current Directory: "C:\Users\kebl7595\Desktop\CFD\Runs\Viscous\normal"

              Welcome to ANSYS Fluent 2023 R1

              Copyright 1987-2023 ANSYS, Inc. All Rights Reserved.
              Unauthorized use, distribution or duplication is prohibited.
              This product is subject to U.S. laws governing export and re-export.
              For full Legal Notice, see documentation.

Build Time: Nov 28 2022 09:52:02 EST  Build Id: 10208  
 
Connected License Server List:	1055@ansyslic.eng.ox.ac.uk

*********************************************
Info: Your license enables 4-way parallel execution.
For faster simulations, please start the application with the appropriate parallel options.
*********************************************


     --------------------------------------------------------------
     This is an academic version of ANSYS FLUENT. Usage of this product
     license is limited to the terms and conditions specified in your ANSYS
     license form, additional terms section.
     --------------------------------------------------------------
Host spawning Node 0 on machine "Engs-30669" (win64).

------------------------------------------------------------------------------------
ID    Hostname    Core  O.S.         PID    Vendor                                 
------------------------------------------------------------------------------------
n0    Engs-30669  1/32  Windows-x64  33260  13th Gen Intel(R) Core(TM) i9-13900    
host  Engs-30669        Windows-x64  30792  13th Gen Intel(R) Core(TM) i9-13900    

MPI Option Selected: intel
------------------------------------------------------------------------------------

Cleanup script file is C:\\Users\\kebl7595\\Desktop\\CFD\\Runs\\Viscous\\normal\\cleanup-fluent-Engs-30669-30792.bat
QA Service Message :
QA Services Agreement Enabled. This application is included in the scope of an ANSYS QA Services Agreement.
Posting ANSYS Product Improvement Program startup data
Done.

Reading journal file C:/Users/kebl7595/Desktop/CFD/Runs/Viscous/normal/project1.jou...

> /file/set-batch-options no no no 

> 
define/                 parametric-study/       solve/
display/                plot/                   surface/
exit                    preferences/            switch-to-meshing-mode
file/                   print-license-usage     turbo-workflow/
mesh/                   report/                 views/
parallel/               server/

> /file/import/cgns/mesh  "./project1.cgns"
Engs-30669 has other FLUENT parallel processes running.                       Process affinity not being set.

Importing "./project1.cgns"

Opening library "C:\\PROGRA~1\\ANSYSI~1\\v231\\fluent\\fluent23.1.0\\vki\\win64\\devtools4.4.6.dll"... done.

Read    17864 nodes
   12996 hexahedral cells, zone  1
    9462 quadrilateral wall faces, zone  2.
   33972 quadrilateral interior faces, zone  3.
     282 quadrilateral interface faces, zone  4.
       6 quadrilateral wall faces, zone  5.

Building...
     mesh
     materials,
     interface,
     domains,
     zones,
	default_exterior-1
	interface-default_subface
	default_interior-1
	default_subface
	default
     parallel,
The automatic selection for flux type has changed to Rhie-Chow: momentum based.

Done.


> 
adjoint/                parallel/               server/
define/                 parametric-study/       solve/
display/                plot/                   surface/
exit                    preferences/            turbo-workflow/
file/                   print-license-usage     views/
mesh/                   report/

> /define/models/solver/density-based-implicit yes

> 
adjoint/                parallel/               server/
define/                 parametric-study/       solve/
display/                plot/                   surface/
exit                    preferences/            turbo-workflow/
file/                   print-license-usage     views/
mesh/                   report/

> /define/models/energy? yes yes invalid command [yes]
yes

> /define/models/viscous/kw-standard? yes

> 
adjoint/                parallel/               server/
define/                 parametric-study/       solve/
display/                plot/                   surface/
exit                    preferences/            turbo-workflow/
file/                   print-license-usage     views/
mesh/                   report/

> /define/materials/change-create air air air is a fluid
yes 
Density
ideal-gas no data required.

no no no no no no

> 
adjoint/                parallel/               server/
define/                 parametric-study/       solve/
display/                plot/                   surface/
exit                    preferences/            turbo-workflow/
file/                   print-license-usage     views/
mesh/                   report/

> /mesh/modify-zones/sep-face-zone-angle 2 90 yes

 4332 faces in contiguous region 0
 228 faces in contiguous region 1
 342 faces in contiguous region 2
 4332 faces in contiguous region 3
 228 faces in contiguous region 4
 Separates zone 2 into 5 zone(s).
Updating new zone information...
   created new zone default_subface:010 from default_subface
   created new zone default_subface:009 from default_subface
   created new zone default_subface:008 from default_subface
   created new zone default_subface:007 from default_subface
done.

> 
adjoint/                parallel/               server/
define/                 parametric-study/       solve/
display/                plot/                   surface/
exit                    preferences/            turbo-workflow/
file/                   print-license-usage     views/
mesh/                   report/

> /define/boundary-conditions/zone-name  5   te

> /define/boundary-conditions/zone-name  7 wing

> /define/boundary-conditions/zone-name  2 sym1

> /define/boundary-conditions/zone-name  9 sym2

> 
adjoint/                parallel/               server/
define/                 parametric-study/       solve/
display/                plot/                   surface/
exit                    preferences/            turbo-workflow/
file/                   print-license-usage     views/
mesh/                   report/

> /define/boundary-conditions/zone-name  8 far1

> /define/boundary-conditions/zone-name 10 far2

> 
adjoint/                parallel/               server/
define/                 parametric-study/       solve/
display/                plot/                   surface/
exit                    preferences/            turbo-workflow/
file/                   print-license-usage     views/
mesh/                   report/

> /define/boundary-conditions/zone-type  8 pressure-far-field

> /define/boundary-conditions/zone-type 10 pressure-far-field

> /define/boundary-conditions/zone-type  2 symmetry

> /define/boundary-conditions/zone-type  9 symmetry

> 
adjoint/                parallel/               server/
define/                 parametric-study/       solve/
display/                plot/                   surface/
exit                    preferences/            turbo-workflow/
file/                   print-license-usage     views/
mesh/                   report/

> /define/boundary-conditions/pressure-far-field (far2 far1)
far1 no 0 no 0.1 no 300 yes no 0.984808 no 0.173648 no 0. no yes 5 0.02

> /define/boundary-conditions/pressure-far-field (far2 far1)
far2 no 0 no 0.1 no 300 yes no 0.984808 no 0.173648 no 0. no yes 5 0.02

> 
adjoint/                parallel/               server/
define/                 parametric-study/       solve/
display/                plot/                   surface/
exit                    preferences/            turbo-workflow/
file/                   print-license-usage     views/
mesh/                   report/

> /solve/initialize/compute-defaults/pressure-far-field (far2 far1)
far1

> /solve/initialize/initialize-flow

> 
adjoint/                parallel/               server/
define/                 parametric-study/       solve/
display/                plot/                   surface/
exit                    preferences/            turbo-workflow/
file/                   print-license-usage     views/
mesh/                   report/

> /solve/monitors/residual/convergence-criteria 1.e-9 1.e-9 1.e-9 1.e-9 1.e-9 1.e-9 1.e-9

> /solve/iterate 2000

  iter  continuity  x-velocity  y-velocity  z-velocity      energy           k       omega     time/iter
     1  1.0000e+00  1.0000e+00  1.0000e+00  1.0000e+00  1.0000e+00  1.7682e-01  1.3060e-01  0:00:00 1999
     2  5.1207e-01  4.0079e-01  4.3947e-01  1.0000e+00  5.1265e-01  1.3415e-01  1.0351e-01  0:00:00 1998
     3  2.8782e-01  2.0276e-01  2.2791e-01  9.9497e-01  2.8804e-01  1.0531e-01  8.4761e-02  0:33:17 1997
     4  1.8395e-01  1.4593e-01  1.4637e-01  7.1895e-01  1.8400e-01  8.5838e-02  7.0878e-02  0:26:37 1996
     5  1.3338e-01  1.2006e-01  1.0126e-01  6.3281e-01  1.3340e-01  7.2878e-02  6.0628e-02  0:21:17 1995
     6  1.0729e-01  8.9900e-02  7.1990e-02  7.2823e-01  1.0733e-01  6.2974e-02  5.3159e-02  0:17:01 1994
     7  9.1529e-02  6.8556e-02  5.3099e-02  7.4855e-01  9.1603e-02  5.4988e-02  4.7195e-02  0:13:36 1993
     8  7.9642e-02  5.4381e-02  4.1227e-02  7.2685e-01  7.9740e-02  4.8437e-02  4.2226e-02  0:10:53 1992
     9  7.0364e-02  4.4821e-02  3.3758e-02  6.7453e-01  7.0472e-02  4.3060e-02  3.8042e-02  0:08:42 1991
    10  6.3117e-02  3.8821e-02  2.8794e-02  6.2329e-01  6.3225e-02  3.8654e-02  3.4483e-02  0:06:57 1990
    11  5.7606e-02  3.5695e-02  2.5233e-02  5.7693e-01  5.7708e-02  3.5025e-02  3.1436e-02  0:05:34 1989

  iter  continuity  x-velocity  y-velocity  z-velocity      energy           k       omega     time/iter
    12  5.3721e-02  3.4433e-02  2.2487e-02  5.3945e-01  5.3814e-02  3.1985e-02  2.8837e-02  0:04:27 1988
    13  5.1311e-02  3.4372e-02  2.0333e-02  5.1723e-01  5.1395e-02  2.9390e-02  2.6600e-02  0:10:11 1987
    14  5.0153e-02  3.5067e-02  1.8694e-02  5.1350e-01  5.0229e-02  2.7168e-02  2.4646e-02  0:08:08 1986
    15  5.0033e-02  3.6250e-02  1.7517e-02  5.2574e-01  5.0100e-02  2.5242e-02  2.2921e-02  0:06:30 1985
    16  5.0717e-02  3.7737e-02  1.6795e-02  5.4939e-01  5.0777e-02  2.3566e-02  2.1399e-02  0:05:12 1984
    17  5.1967e-02  3.9464e-02  1.6429e-02  5.8387e-01  5.2019e-02  2.2072e-02  2.0050e-02  0:04:10 1983
    18  5.3579e-02  4.1364e-02  1.6362e-02  6.2724e-01  5.3624e-02  2.0736e-02  1.8834e-02  0:03:20 1982
    19  5.5381e-02  4.3202e-02  1.6569e-02  6.7793e-01  5.5417e-02  1.9542e-02  1.7734e-02  0:02:40 1981
    20  5.7219e-02  4.4948e-02  1.6970e-02  7.3492e-01  5.7245e-02  1.8461e-02  1.6740e-02  0:02:08 1980
    21  5.8938e-02  4.6453e-02  1.7570e-02  7.9579e-01  5.8954e-02  1.7470e-02  1.5840e-02  0:08:18 1979
    22  6.0421e-02  4.7787e-02  1.8225e-02  8.5635e-01  6.0424e-02  1.6570e-02  1.5023e-02  0:06:38 1978

  iter  continuity  x-velocity  y-velocity  z-velocity      energy           k       omega     time/iter
    23  6.1562e-02  4.8768e-02  1.8994e-02  9.1150e-01  6.1553e-02  1.5750e-02  1.4276e-02  0:05:18 1977
    24  6.2276e-02  4.9318e-02  1.9854e-02  9.5657e-01  6.2253e-02  1.4998e-02  1.3585e-02  0:04:15 1976
    25  6.2497e-02  4.9436e-02  2.0676e-02  9.8720e-01  6.2458e-02  1.4299e-02  1.2948e-02  0:03:24 1975
    26  6.2191e-02  4.9101e-02  2.1429e-02  9.9981e-01  6.2138e-02  1.3648e-02  1.2357e-02  0:02:43 1974
    27  6.1359e-02  4.8331e-02  2.2082e-02  9.9322e-01  6.1290e-02  1.3039e-02  1.1808e-02  0:02:10 1973
    28  5.9985e-02  4.6979e-02  2.2514e-02  9.6156e-01  5.9902e-02  1.2468e-02  1.1290e-02  0:01:44 1972
    29  5.8132e-02  4.5567e-02  2.2817e-02  9.1499e-01  5.8034e-02  1.1932e-02  1.0807e-02  0:01:23 1971
    30  5.5817e-02  4.4073e-02  2.2886e-02  8.5612e-01  5.5707e-02  1.1435e-02  1.0356e-02  0:01:07 1970
    31  5.3104e-02  4.2606e-02  2.2851e-02  7.8528e-01  5.2983e-02  1.0968e-02  9.9396e-03  0:07:27 1969
    32  5.0049e-02  4.1228e-02  2.2795e-02  7.0946e-01  4.9918e-02  1.0532e-02  9.5460e-03  0:05:57 1968
    33  4.6704e-02  3.9892e-02  2.2785e-02  6.4171e-01  4.6565e-02  1.0122e-02  9.1669e-03  0:04:46 1967

  iter  continuity  x-velocity  y-velocity  z-velocity      energy           k       omega     time/iter
    34  4.3106e-02  3.8475e-02  2.2866e-02  5.9672e-01  4.2961e-02  9.7354e-03  8.8070e-03  0:03:49 1966
    35  3.9338e-02  3.7478e-02  2.3057e-02  5.8647e-01  3.9189e-02  9.3693e-03  8.4543e-03  0:03:03 1965
    36  3.5477e-02  3.6880e-02  2.3436e-02  6.0751e-01  3.5326e-02  9.0238e-03  8.1103e-03  0:02:26 1964
    37  3.1601e-02  3.6619e-02  2.4032e-02  6.5522e-01  3.1448e-02  8.7048e-03  7.7844e-03  0:01:57 1963
    38  2.7773e-02  3.6610e-02  2.4786e-02  7.2041e-01  2.7620e-02  8.4112e-03  7.4760e-03  0:01:33 1962
    39  2.4071e-02  3.6881e-02  2.5718e-02  7.9494e-01  2.3919e-02  8.1301e-03  7.1885e-03  0:01:15 1961
    40  2.0564e-02  3.7435e-02  2.6746e-02  8.6861e-01  2.0415e-02  7.8677e-03  6.9097e-03  0:07:32 1960
    41  1.7322e-02  3.8100e-02  2.7829e-02  9.3220e-01  1.7176e-02  7.6207e-03  6.6439e-03  0:06:01 1959
    42  1.4418e-02  3.8810e-02  2.8893e-02  9.8445e-01  1.4277e-02  7.3760e-03  6.3921e-03  0:04:49 1958
    43  1.1947e-02  3.9480e-02  2.9897e-02  1.0240e+00  1.1814e-02  7.1385e-03  6.1547e-03  0:03:51 1957
    44  1.0054e-02  4.0048e-02  3.0799e-02  1.0506e+00  9.9339e-03  6.9157e-03  5.9237e-03  0:03:05 1956

  iter  continuity  x-velocity  y-velocity  z-velocity      energy           k       omega     time/iter
    45  8.8632e-03  4.0625e-02  3.1513e-02  1.0598e+00  8.7633e-03  6.7068e-03  5.7198e-03  0:02:28 1955
    46  8.4182e-03  4.1118e-02  3.2037e-02  1.0521e+00  8.3454e-03  6.5079e-03  5.5192e-03  0:01:58 1954
    47  8.6086e-03  4.1494e-02  3.2366e-02  1.0284e+00  8.5633e-03  6.3181e-03  5.3089e-03  0:01:34 1953
    48  9.2175e-03  4.1738e-02  3.2504e-02  9.9396e-01  9.1949e-03  6.1329e-03  5.1020e-03  0:01:15 1952
    49  1.0039e-02  4.1849e-02  3.2466e-02  9.4653e-01  1.0033e-02  5.9528e-03  4.8950e-03  0:01:00 1951
    50  1.0925e-02  4.1807e-02  3.2260e-02  8.8868e-01  1.0929e-02  5.7853e-03  4.6980e-03  0:00:48 1950
    51  1.1786e-02  4.1619e-02  3.1898e-02  8.2236e-01  1.1797e-02  5.6297e-03  4.5112e-03  0:07:08 1949
    52  1.2578e-02  4.1308e-02  3.1397e-02  7.5213e-01  1.2594e-02  5.4949e-03  4.3365e-03  0:05:43 1948
    53  1.3271e-02  4.0917e-02  3.0767e-02  6.8284e-01  1.3290e-02  5.3662e-03  4.1746e-03  0:04:34 1947
    54  1.3860e-02  4.0497e-02  3.0017e-02  6.1791e-01  1.3880e-02  5.2430e-03  4.0271e-03  0:03:39 1946
    55  1.4348e-02  3.9959e-02  2.9209e-02  5.6531e-01  1.4369e-02  5.1578e-03  3.8879e-03  0:02:55 1945

  iter  continuity  x-velocity  y-velocity  z-velocity      energy           k       omega     time/iter
    56  1.4731e-02  3.9333e-02  2.8339e-02  5.3020e-01  1.4752e-02  5.0953e-03  3.7629e-03  0:02:20 1944
    57  1.5006e-02  3.8646e-02  2.7406e-02  5.1307e-01  1.5027e-02  5.0328e-03  3.6413e-03  0:01:52 1943
    58  1.5177e-02  3.7899e-02  2.6408e-02  5.1430e-01  1.5198e-02  4.9762e-03  3.5317e-03  0:01:30 1942
    59  1.5251e-02  3.7054e-02  2.5369e-02  5.3225e-01  1.5271e-02  4.9243e-03  3.4308e-03  0:01:12 1941
    60  1.5233e-02  3.6128e-02  2.4292e-02  5.6198e-01  1.5252e-02  4.8695e-03  3.3332e-03  0:00:57 1940
    61  1.5128e-02  3.5149e-02  2.3178e-02  6.0023e-01  1.5145e-02  4.9231e-03  3.3138e-03  0:07:14 1939
    62  1.4935e-02  3.4135e-02  2.2027e-02  6.4043e-01  1.4950e-02  4.8343e-03  3.2048e-03  0:05:47 1938
    63  1.4655e-02  3.3017e-02  2.0861e-02  6.7788e-01  1.4669e-02  4.7662e-03  3.1100e-03  0:04:37 1937
    64  1.4292e-02  3.1751e-02  1.9707e-02  7.0874e-01  1.4305e-02  4.7116e-03  3.0402e-03  0:03:42 1936
    65  1.3854e-02  3.0446e-02  1.8538e-02  7.3126e-01  1.3864e-02  4.6586e-03  2.9664e-03  0:02:57 1935
    66  1.3341e-02  2.9112e-02  1.7366e-02  7.4753e-01  1.3350e-02  4.6068e-03  2.8985e-03  0:02:22 1934

  iter  continuity  x-velocity  y-velocity  z-velocity      energy           k       omega     time/iter
    67  1.2755e-02  2.7752e-02  1.6176e-02  7.5812e-01  1.2762e-02  4.5535e-03  2.8378e-03  0:01:53 1933
    68  1.2099e-02  2.6370e-02  1.4984e-02  7.5835e-01  1.2104e-02  4.5029e-03  2.7783e-03  0:01:31 1932
    69  1.1383e-02  2.5029e-02  1.3792e-02  7.4885e-01  1.1386e-02  4.4493e-03  2.7228e-03  0:01:12 1931
    70  1.0617e-02  2.3671e-02  1.2654e-02  7.3234e-01  1.0618e-02  4.3985e-03  2.6666e-03  0:00:58 1930
    71  9.8124e-03  2.2327e-02  1.1557e-02  7.0871e-01  9.8120e-03  4.3543e-03  2.6065e-03  0:07:12 1929
    72  8.9864e-03  2.1050e-02  1.0491e-02  6.7947e-01  8.9839e-03  4.3088e-03  2.5591e-03  0:05:46 1928
    73  8.1673e-03  1.9899e-02  9.4731e-03  6.4791e-01  8.1626e-03  4.2544e-03  2.5005e-03  0:04:36 1927
    74  7.3967e-03  1.8900e-02  8.5082e-03  6.1561e-01  7.3895e-03  4.2003e-03  2.4575e-03  0:03:41 1926
    75  6.7461e-03  1.8103e-02  7.6541e-03  5.8637e-01  6.7360e-03  4.1525e-03  2.4180e-03  0:02:57 1925
    76  6.3049e-03  1.7579e-02  6.9043e-03  5.6316e-01  6.2914e-03  4.1090e-03  2.3881e-03  0:02:21 1924
    77  6.1666e-03  1.7368e-02  6.2547e-03  5.4810e-01  6.1496e-03  4.0868e-03  2.3686e-03  0:01:53 1923

  iter  continuity  x-velocity  y-velocity  z-velocity      energy           k       omega     time/iter
    78  6.3918e-03  1.7432e-02  5.7306e-03  5.4624e-01  6.3718e-03  4.0450e-03  2.3339e-03  0:01:30 1922
    79  6.9720e-03  1.7700e-02  5.3504e-03  5.5649e-01  6.9496e-03  4.0041e-03  2.3169e-03  0:01:12 1921
    80  7.8417e-03  1.8065e-02  5.1381e-03  5.7677e-01  7.8170e-03  3.9708e-03  2.2817e-03  0:00:58 1920
    81  8.9263e-03  1.8592e-02  5.0435e-03  6.0461e-01  8.8993e-03  3.9464e-03  2.2524e-03  0:07:10 1919
    82  1.0151e-02  1.9217e-02  5.0311e-03  6.3987e-01  1.0122e-02  3.9274e-03  2.2289e-03  0:05:44 1918
    83  1.1459e-02  1.9883e-02  5.1034e-03  6.7274e-01  1.1427e-02  3.9323e-03  2.2041e-03  0:04:35 1917
    84  1.2808e-02  2.0536e-02  5.2454e-03  7.0189e-01  1.2772e-02  3.9475e-03  2.1777e-03  0:03:40 1916
    85  1.4154e-02  2.1130e-02  5.4272e-03  7.2342e-01  1.4115e-02  3.9689e-03  2.1475e-03  0:02:56 1915
    86  1.5462e-02  2.1634e-02  5.6266e-03  7.3558e-01  1.5419e-02  4.0093e-03  2.1303e-03  0:02:21 1914
    87  1.6710e-02  2.2023e-02  5.8318e-03  7.3867e-01  1.6662e-02  4.0301e-03  2.0955e-03  0:01:52 1913
    88  1.7879e-02  2.2290e-02  6.0429e-03  7.3346e-01  1.7827e-02  4.0539e-03  2.0664e-03  0:01:30 1912

  iter  continuity  x-velocity  y-velocity  z-velocity      energy           k       omega     time/iter
    89  1.8936e-02  2.2409e-02  6.2453e-03  7.1850e-01  1.8878e-02  4.0751e-03  2.0383e-03  0:01:12 1911
    90  1.9847e-02  2.2362e-02  6.4328e-03  6.9244e-01  1.9783e-02  4.1097e-03  2.0088e-03  0:00:57 1910
    91  2.0594e-02  2.2157e-02  6.5952e-03  6.5625e-01  2.0525e-02  4.1568e-03  1.9732e-03  0:07:08 1909
    92  2.1166e-02  2.1801e-02  6.7309e-03  6.1196e-01  2.1091e-02  4.2027e-03  1.9413e-03  0:05:42 1908
    93  2.1560e-02  2.1283e-02  6.6021e-03  5.6146e-01  2.1479e-02  4.2434e-03  1.9110e-03  0:04:33 1907
    94  2.1787e-02  2.0666e-02  6.7382e-03  5.0599e-01  2.1701e-02  4.2868e-03  1.8770e-03  0:03:39 1906
    95  2.1824e-02  1.9942e-02  6.9486e-03  4.5162e-01  2.1732e-02  4.3294e-03  1.8511e-03  0:02:55 1905
    96  2.1662e-02  1.9128e-02  7.2071e-03  4.0253e-01  2.1565e-02  4.3682e-03  1.8278e-03  0:02:20 1904
    97  2.1314e-02  1.8220e-02  7.5727e-03  3.6288e-01  2.1211e-02  4.4053e-03  1.8079e-03  0:01:52 1903
    98  2.0798e-02  1.7305e-02  7.9436e-03  3.4402e-01  2.0690e-02  4.4310e-03  1.7898e-03  0:01:29 1902
    99  2.0123e-02  1.6412e-02  8.4112e-03  3.4989e-01  2.0010e-02  4.4518e-03  1.7656e-03  0:01:11 1901

  iter  continuity  x-velocity  y-velocity  z-velocity      energy           k       omega     time/iter
   100  1.9306e-02  1.5556e-02  9.0274e-03  3.7990e-01  1.9189e-02  4.4764e-03  1.7468e-03  0:00:57 1900
   101  1.8355e-02  1.4855e-02  9.7190e-03  4.2688e-01  1.8234e-02  4.4900e-03  1.7302e-03  0:00:46 1899
   102  1.7284e-02  1.3875e-02  1.0367e-02  4.8433e-01  1.7159e-02  4.4895e-03  1.7135e-03  0:06:56 1898
   103  1.6152e-02  1.3501e-02  1.1093e-02  5.4441e-01  1.6025e-02  4.4891e-03  1.6952e-03  0:05:33 1897
   104  1.4989e-02  1.3562e-02  1.1887e-02  6.0452e-01  1.4860e-02  4.4861e-03  1.6865e-03  0:04:26 1896
   105  1.3792e-02  1.3957e-02  1.2715e-02  6.5909e-01  1.3662e-02  4.4744e-03  1.6830e-03  0:03:33 1895
   106  1.2570e-02  1.4659e-02  1.3530e-02  7.0764e-01  1.2439e-02  4.4488e-03  1.6768e-03  0:02:50 1894
   107  1.1346e-02  1.5620e-02  1.4308e-02  7.4878e-01  1.1215e-02  4.4273e-03  1.6534e-03  0:02:16 1893
   108  1.0141e-02  1.6753e-02  1.5033e-02  7.7948e-01  1.0012e-02  4.4042e-03  1.6270e-03  0:01:49 1892
   109  8.9716e-03  1.8002e-02  1.5692e-02  8.0321e-01  8.8443e-03  4.3710e-03  1.6091e-03  0:01:27 1891
   110  7.8596e-03  1.9327e-02  1.6272e-02  8.1514e-01  7.7360e-03  4.3251e-03  1.5895e-03  0:01:10 1890

  iter  continuity  x-velocity  y-velocity  z-velocity      energy           k       omega     time/iter
   111  6.8418e-03  2.0678e-02  1.6760e-02  8.1443e-01  6.7239e-03  4.2757e-03  1.5671e-03  0:00:56 1889
   112  5.9626e-03  2.2013e-02  1.7148e-02  8.0358e-01  5.8537e-03  4.2225e-03  1.5481e-03  0:07:02 1888
   113  5.2705e-03  2.3247e-02  1.7430e-02  7.8580e-01  5.1749e-03  4.1649e-03  1.5389e-03  0:05:37 1887
   114  4.8140e-03  2.4422e-02  1.7606e-02  7.5445e-01  4.7369e-03  4.1029e-03  1.5126e-03  0:04:30 1886
   115  4.6299e-03  2.5511e-02  1.7675e-02  7.1379e-01  4.5752e-03  4.0402e-03  1.4859e-03  0:03:36 1885
   116  4.7049e-03  2.6482e-02  1.7639e-02  6.6480e-01  4.6728e-03  4.0941e-03  1.5373e-03  0:02:53 1884
   117  4.9840e-03  2.7314e-02  1.7500e-02  6.0847e-01  4.9710e-03  3.9944e-03  1.4830e-03  0:02:18 1883
   118  5.3976e-03  2.7996e-02  1.7265e-02  5.4759e-01  5.3984e-03  3.9047e-03  1.4441e-03  0:01:50 1882
   119  5.8851e-03  2.8525e-02  1.6938e-02  4.8333e-01  5.8951e-03  3.8267e-03  1.4228e-03  0:01:28 1881
   120  6.4019e-03  2.8909e-02  1.6526e-02  4.1625e-01  6.4172e-03  3.7435e-03  1.3925e-03  0:01:11 1880
   121  6.9174e-03  2.9135e-02  1.6043e-02  3.4944e-01  6.9352e-03  3.6624e-03  1.3667e-03  0:00:56 1879

  iter  continuity  x-velocity  y-velocity  z-velocity      energy           k       omega     time/iter
   122  7.4095e-03  2.9205e-02  1.5486e-02  2.8543e-01  7.4277e-03  3.5762e-03  1.3462e-03  0:00:45 1878
   123  7.8629e-03  2.9136e-02  1.4860e-02  2.3144e-01  7.8802e-03  3.4879e-03  1.3298e-03  0:06:51 1877
   124  8.2665e-03  2.8925e-02  1.4186e-02  1.9277e-01  8.2818e-03  3.3989e-03  1.3141e-03  0:05:29 1876
   125  8.6135e-03  2.8578e-02  1.3474e-02  1.8142e-01  8.6261e-03  3.3136e-03  1.2923e-03  0:04:23 1875
   126  8.8994e-03  2.8102e-02  1.2733e-02  2.0040e-01  8.9089e-03  3.2297e-03  1.2693e-03  0:03:30 1874
   127  9.1184e-03  2.7518e-02  1.1958e-02  2.4019e-01  9.1244e-03  3.1431e-03  1.2457e-03  0:02:48 1873
   128  9.2682e-03  2.6821e-02  1.1189e-02  2.8936e-01  9.2706e-03  3.0478e-03  1.2232e-03  0:02:14 1872
   129  9.3498e-03  2.6034e-02  1.0437e-02  3.4138e-01  9.3484e-03  2.9581e-03  1.2026e-03  0:01:48 1871
   130  9.3474e-03  2.5128e-02  9.6970e-03  3.9261e-01  9.3423e-03  2.8712e-03  1.1825e-03  0:01:26 1870
   131  9.2635e-03  2.4144e-02  8.9359e-03  4.4089e-01  9.2548e-03  2.7761e-03  1.1651e-03  0:01:09 1869
   132  9.0823e-03  2.3006e-02  8.2291e-03  4.8510e-01  9.0701e-03  2.6789e-03  1.1432e-03  0:00:55 1868

  iter  continuity  x-velocity  y-velocity  z-velocity      energy           k       omega     time/iter
   133  8.8213e-03  2.1826e-02  7.7300e-03  5.2529e-01  8.8060e-03  2.5832e-03  1.1267e-03  0:00:44 1867
   134  8.5210e-03  2.0788e-02  7.2290e-03  5.6029e-01  8.5027e-03  2.4910e-03  1.1137e-03  0:06:48 1866
   135  8.1603e-03  1.9689e-02  6.7564e-03  5.8942e-01  8.1392e-03  2.4040e-03  1.1098e-03  0:05:26 1865
   136  7.7477e-03  1.8548e-02  6.4223e-03  6.1485e-01  7.7239e-03  2.3163e-03  1.1123e-03  0:04:21 1864
   137  7.2859e-03  1.7404e-02  6.1704e-03  6.3600e-01  7.2596e-03  2.2404e-03  1.0856e-03  0:03:29 1863
   138  6.7833e-03  1.6314e-02  5.9939e-03  6.5164e-01  6.7548e-03  2.1751e-03  1.0737e-03  0:02:47 1862
   139  6.2495e-03  1.5313e-02  5.8987e-03  6.6246e-01  6.2191e-03  2.1254e-03  1.0607e-03  0:02:13 1861
   140  5.6941e-03  1.4431e-02  5.8804e-03  6.6896e-01  5.6624e-03  2.0949e-03  1.0627e-03  0:01:47 1860
   141  5.1197e-03  1.3865e-02  5.8421e-03  6.7019e-01  5.0872e-03  2.0767e-03  1.0805e-03  0:01:25 1859
   142  4.5498e-03  1.3696e-02  5.9334e-03  6.6737e-01  4.5171e-03  2.1630e-03  1.1678e-03  0:01:08 1858
   143  4.0309e-03  1.3212e-02  6.1666e-03  6.6098e-01  3.9983e-03  2.1110e-03  1.1481e-03  0:00:55 1857

  iter  continuity  x-velocity  y-velocity  z-velocity      energy           k       omega     time/iter
   144  3.5712e-03  1.2714e-02  6.3398e-03  6.5055e-01  3.5394e-03  2.0828e-03  1.1288e-03  0:06:55 1856
   145  3.1985e-03  1.2389e-02  6.4719e-03  6.3734e-01  3.1692e-03  2.0734e-03  1.1171e-03  0:05:32 1855
   146  2.9525e-03  1.2320e-02  6.6503e-03  6.2033e-01  2.9273e-03  2.0607e-03  1.1004e-03  0:04:25 1854
   147  2.8535e-03  1.2236e-02  6.7938e-03  6.0088e-01  2.8337e-03  2.0486e-03  1.0878e-03  0:03:32 1853
   148  2.9032e-03  1.2193e-02  6.8874e-03  5.7942e-01  2.8894e-03  2.0358e-03  1.0734e-03  0:02:50 1852
   149  3.0754e-03  1.2188e-02  6.9356e-03  5.5592e-01  3.0672e-03  2.0269e-03  1.0655e-03  0:02:16 1851
   150  3.3337e-03  1.2219e-02  6.9412e-03  5.3017e-01  3.3300e-03  2.0138e-03  1.0603e-03  0:01:48 1850
   151  3.6397e-03  1.2267e-02  6.9046e-03  5.0224e-01  3.6392e-03  1.9958e-03  1.0559e-03  0:01:27 1849
   152  3.9631e-03  1.2316e-02  6.8272e-03  4.7380e-01  3.9647e-03  1.9794e-03  1.0476e-03  0:01:09 1848
   153  4.2823e-03  1.2350e-02  6.7096e-03  4.4491e-01  4.2851e-03  1.9644e-03  1.0350e-03  0:00:55 1847
   154  4.5786e-03  1.2353e-02  6.5529e-03  4.1386e-01  4.5820e-03  1.9507e-03  1.0243e-03  0:00:44 1846

  iter  continuity  x-velocity  y-velocity  z-velocity      energy           k       omega     time/iter
   155  4.8419e-03  1.2315e-02  6.3600e-03  3.8071e-01  4.8454e-03  1.9394e-03  1.0128e-03  0:06:44 1845
   156  5.0645e-03  1.2227e-02  6.1348e-03  3.4625e-01  5.0676e-03  1.9283e-03  1.0006e-03  0:05:23 1844
   157  5.2431e-03  1.2107e-02  5.8833e-03  3.1057e-01  5.2456e-03  1.9235e-03  9.8930e-04  0:04:19 1843
   158  5.3780e-03  1.1984e-02  5.6097e-03  2.7513e-01  5.3797e-03  1.9201e-03  9.7420e-04  0:03:27 1842
   159  5.4626e-03  1.1783e-02  5.3110e-03  2.4188e-01  5.4633e-03  1.9236e-03  9.6069e-04  0:02:45 1841
   160  5.4955e-03  1.1512e-02  4.9910e-03  2.0861e-01  5.4952e-03  1.9304e-03  9.4637e-04  0:02:12 1840
   161  5.4788e-03  1.1187e-02  4.6561e-03  1.7913e-01  5.4774e-03  1.9435e-03  9.3250e-04  0:01:46 1839
   162  5.4148e-03  1.0814e-02  4.3136e-03  1.5617e-01  5.4123e-03  1.9587e-03  9.1885e-04  0:01:24 1838
   163  5.3063e-03  1.0404e-02  3.9703e-03  1.4328e-01  5.3028e-03  1.9775e-03  9.0772e-04  0:01:08 1837
   164  5.1573e-03  9.9701e-03  3.6330e-03  1.4283e-01  5.1529e-03  2.0023e-03  8.9814e-04  0:00:54 1836
   165  4.9728e-03  9.5264e-03  3.3089e-03  1.5396e-01  4.9676e-03  2.0354e-03  8.9051e-04  0:06:50 1835

  iter  continuity  x-velocity  y-velocity  z-velocity      energy           k       omega     time/iter
   166  4.7570e-03  9.0895e-03  2.9995e-03  1.7291e-01  4.7510e-03  2.0709e-03  8.8098e-04  0:05:28 1834
   167  4.5169e-03  8.6814e-03  2.7193e-03  1.9665e-01  4.5102e-03  2.1083e-03  8.6987e-04  0:04:22 1833
   168  4.2595e-03  8.3075e-03  2.4953e-03  2.2258e-01  4.2523e-03  2.1448e-03  8.6242e-04  0:03:30 1832
   169  3.9910e-03  7.9839e-03  2.3175e-03  2.4874e-01  3.9834e-03  2.1797e-03  8.5695e-04  0:02:48 1831
   170  3.7194e-03  7.7195e-03  2.1928e-03  2.7392e-01  3.7116e-03  2.2200e-03  8.5291e-04  0:02:14 1830
   171  3.4533e-03  7.5175e-03  2.1209e-03  2.9801e-01  3.4454e-03  2.2632e-03  8.5222e-04  0:01:47 1829
   172  3.1979e-03  7.3503e-03  2.0742e-03  3.2021e-01  3.1900e-03  2.3068e-03  8.4954e-04  0:01:26 1828
   173  2.9476e-03  7.1331e-03  2.0010e-03  3.4034e-01  2.9401e-03  2.3523e-03  8.4943e-04  0:01:09 1827
   174  2.7410e-03  7.0078e-03  2.0335e-03  3.5791e-01  2.7341e-03  2.3952e-03  8.4716e-04  0:00:55 1826
   175  2.5788e-03  6.9301e-03  2.0951e-03  3.7275e-01  2.5727e-03  2.4392e-03  8.4392e-04  0:00:44 1825
   176  2.4713e-03  6.9023e-03  2.1669e-03  3.8452e-01  2.4661e-03  2.4858e-03  8.3088e-04  0:06:40 1824

  iter  continuity  x-velocity  y-velocity  z-velocity      energy           k       omega     time/iter
   177  2.4256e-03  6.9178e-03  2.2360e-03  3.9360e-01  2.4214e-03  2.5259e-03  8.2105e-04  0:05:20 1823
   178  2.4390e-03  6.9572e-03  2.2984e-03  3.9952e-01  2.4358e-03  2.5601e-03  8.2160e-04  0:04:16 1822
   179  2.5030e-03  7.0111e-03  2.3489e-03  4.0275e-01  2.5007e-03  2.5916e-03  8.2311e-04  0:03:24 1821
   180  2.6059e-03  7.0717e-03  2.3846e-03  4.0273e-01  2.6042e-03  2.6214e-03  8.2338e-04  0:02:43 1820
   181  2.7347e-03  7.1317e-03  2.4044e-03  3.9988e-01  2.7334e-03  2.6444e-03  8.2296e-04  0:02:11 1819
   182  2.8769e-03  7.1856e-03  2.4081e-03  3.9403e-01  2.8759e-03  2.6599e-03  8.2275e-04  0:01:44 1818
   183  3.0222e-03  7.2288e-03  2.3957e-03  3.8444e-01  3.0212e-03  2.6676e-03  8.2250e-04  0:01:24 1817
   184  3.1620e-03  7.2578e-03  2.3674e-03  3.7362e-01  3.1610e-03  2.6659e-03  8.2062e-04  0:01:07 1816
   185  3.2905e-03  7.2691e-03  2.3253e-03  3.6216e-01  3.2894e-03  2.6606e-03  8.1738e-04  0:00:53 1815
   186  3.4030e-03  7.2602e-03  2.2705e-03  3.5121e-01  3.4017e-03  2.6504e-03  8.1205e-04  0:00:43 1814
   187  3.4962e-03  7.2308e-03  2.2047e-03  3.3870e-01  3.4947e-03  2.6336e-03  8.0413e-04  0:06:37 1813

  iter  continuity  x-velocity  y-velocity  z-velocity      energy           k       omega     time/iter
   188  3.5671e-03  7.1742e-03  2.1287e-03  3.2513e-01  3.5654e-03  2.6103e-03  7.9730e-04  0:05:17 1812
   189  3.6149e-03  7.1055e-03  2.0463e-03  3.0964e-01  3.6130e-03  2.5859e-03  7.8875e-04  0:04:14 1811
   190  3.6377e-03  7.0198e-03  1.9562e-03  2.9236e-01  3.6356e-03  2.5577e-03  7.7779e-04  0:03:23 1810
   191  3.6353e-03  6.9157e-03  1.8623e-03  2.7416e-01  3.6331e-03  2.5252e-03  7.6856e-04  0:02:42 1809
   192  3.6084e-03  6.7951e-03  1.7672e-03  2.5505e-01  3.6061e-03  2.4858e-03  7.5791e-04  0:02:10 1808
   193  3.5586e-03  6.6601e-03  1.6727e-03  2.3531e-01  3.5561e-03  2.4423e-03  7.4454e-04  0:01:44 1807
   194  3.4867e-03  6.5130e-03  1.5802e-03  2.1440e-01  3.4842e-03  2.3986e-03  7.3625e-04  0:01:23 1806
   195  3.3942e-03  6.3567e-03  1.4911e-03  1.9352e-01  3.3917e-03  2.3508e-03  7.3142e-04  0:01:06 1805
   196  3.2827e-03  6.1926e-03  1.4069e-03  1.7328e-01  3.2802e-03  2.2995e-03  7.2361e-04  0:00:53 1804
   197  3.1535e-03  6.0231e-03  1.3287e-03  1.5502e-01  3.1510e-03  2.2445e-03  7.1297e-04  0:06:43 1803
   198  3.0084e-03  5.8512e-03  1.2578e-03  1.3874e-01  3.0060e-03  2.1891e-03  7.0548e-04  0:05:22 1802

  iter  continuity  x-velocity  y-velocity  z-velocity      energy           k       omega     time/iter
   199  2.8497e-03  5.6792e-03  1.1957e-03  1.2532e-01  2.8475e-03  2.1338e-03  7.0084e-04  0:04:18 1801
   200  2.6794e-03  5.5087e-03  1.1430e-03  1.1563e-01  2.6774e-03  2.0765e-03  6.9315e-04  0:03:26 1800
   201  2.5002e-03  5.3420e-03  1.0999e-03  1.1055e-01  2.4983e-03  2.0155e-03  6.8283e-04  0:02:45 1799
   202  2.3149e-03  5.1808e-03  1.0658e-03  1.1043e-01  2.3132e-03  1.9521e-03  6.6926e-04  0:02:12 1798
   203  2.1264e-03  5.0263e-03  1.0394e-03  1.1438e-01  2.1249e-03  1.8878e-03  6.5927e-04  0:01:45 1797
   204  1.9378e-03  4.8801e-03  1.0201e-03  1.2163e-01  1.9366e-03  1.8234e-03  6.5078e-04  0:01:24 1796
   205  1.7530e-03  4.7424e-03  1.0063e-03  1.3080e-01  1.7520e-03  1.7583e-03  6.4112e-04  0:01:07 1795
   206  1.5759e-03  4.6137e-03  9.9674e-04  1.4074e-01  1.5752e-03  1.6943e-03  6.2791e-04  0:00:54 1794
   207  1.4115e-03  4.4943e-03  9.9025e-04  1.5043e-01  1.4110e-03  1.6315e-03  6.1318e-04  0:00:43 1793
   208  1.2651e-03  4.3843e-03  9.8563e-04  1.5942e-01  1.2647e-03  1.5716e-03  6.0247e-04  0:06:33 1792
   209  1.1430e-03  4.2831e-03  9.8155e-04  1.6716e-01  1.1428e-03  1.5172e-03  5.9088e-04  0:05:14 1791

  iter  continuity  x-velocity  y-velocity  z-velocity      energy           k       omega     time/iter
   210  1.0520e-03  4.1899e-03  9.7698e-04  1.7366e-01  1.0519e-03  1.4764e-03  5.8294e-04  0:04:11 1790
   211  9.9755e-04  4.1040e-03  9.7116e-04  1.7874e-01  9.9740e-04  1.4478e-03  5.7504e-04  0:03:21 1789
   212  9.8138e-04  4.0244e-03  9.6353e-04  1.8227e-01  9.8108e-04  1.4255e-03  5.6263e-04  0:02:41 1788
   213  1.0003e-03  3.9499e-03  9.5372e-04  1.8412e-01  9.9977e-04  1.4041e-03  5.4556e-04  0:02:08 1787
   214  1.0470e-03  3.8792e-03  9.4144e-04  1.8421e-01  1.0462e-03  1.3841e-03  5.3301e-04  0:01:43 1786
   215  1.1126e-03  3.8111e-03  9.2658e-04  1.8295e-01  1.1114e-03  1.3644e-03  5.2022e-04  0:01:22 1785
   216  1.1886e-03  3.7447e-03  9.0907e-04  1.8053e-01  1.1872e-03  1.3469e-03  5.0697e-04  0:01:06 1784
   217  1.2686e-03  3.6790e-03  8.8889e-04  1.7669e-01  1.2669e-03  1.3316e-03  4.9522e-04  0:00:52 1783
   218  1.3475e-03  3.6131e-03  8.6624e-04  1.7162e-01  1.3456e-03  1.3190e-03  4.8486e-04  0:06:38 1782
   219  1.4216e-03  3.5462e-03  8.4139e-04  1.6522e-01  1.4195e-03  1.3056e-03  4.7423e-04  0:05:18 1781
   220  1.4883e-03  3.4777e-03  8.1471e-04  1.5786e-01  1.4860e-03  1.2946e-03  4.6352e-04  0:04:15 1780

  iter  continuity  x-velocity  y-velocity  z-velocity      energy           k       omega     time/iter
   221  1.5459e-03  3.4074e-03  7.8660e-04  1.4942e-01  1.5433e-03  1.2835e-03  4.4982e-04  0:03:24 1779
   222  1.5931e-03  3.3351e-03  7.5763e-04  1.4030e-01  1.5903e-03  1.2713e-03  4.3736e-04  0:02:43 1778
   223  1.6293e-03  3.2607e-03  7.2836e-04  1.3061e-01  1.6265e-03  1.2599e-03  4.2588e-04  0:02:10 1777
   224  1.6543e-03  3.1840e-03  6.9941e-04  1.2016e-01  1.6514e-03  1.2498e-03  4.1361e-04  0:01:44 1776
   225  1.6678e-03  3.1057e-03  6.7135e-04  1.0933e-01  1.6648e-03  1.2388e-03  4.0355e-04  0:01:23 1775
   226  1.6699e-03  3.0263e-03  6.4473e-04  9.9291e-02  1.6668e-03  1.2268e-03  3.9208e-04  0:07:01 1774
   227  1.6609e-03  2.9467e-03  6.1834e-04  8.9647e-02  1.6578e-03  1.2173e-03  3.7882e-04  0:05:37 1773
   228  1.6414e-03  2.8683e-03  5.9469e-04  8.1614e-02  1.6382e-03  1.2049e-03  3.6796e-04  0:04:29 1772
   229  1.6117e-03  2.7905e-03  5.7908e-04  7.5982e-02  1.6086e-03  1.1919e-03  3.5730e-04  0:03:35 1771
   230  1.5724e-03  2.7151e-03  5.6532e-04  7.3625e-02  1.5693e-03  1.1794e-03  3.4690e-04  0:02:52 1770
   231  1.5242e-03  2.6432e-03  5.5386e-04  7.4900e-02  1.5212e-03  1.1675e-03  3.3753e-04  0:02:18 1769

  iter  continuity  x-velocity  y-velocity  z-velocity      energy           k       omega     time/iter
   232  1.4682e-03  2.5759e-03  5.4560e-04  7.9412e-02  1.4653e-03  1.1548e-03  3.3176e-04  0:01:50 1768
   233  1.4056e-03  2.5140e-03  5.4072e-04  8.6320e-02  1.4027e-03  1.1409e-03  3.2542e-04  0:01:28 1767
   234  1.3373e-03  2.4585e-03  5.3896e-04  9.4775e-02  1.3345e-03  1.1245e-03  3.2241e-04  0:01:10 1766
   235  1.2645e-03  2.4104e-03  5.3971e-04  1.0411e-01  1.2618e-03  1.1058e-03  3.1640e-04  0:00:56 1765
   236  1.1885e-03  2.3699e-03  5.4253e-04  1.1358e-01  1.1860e-03  1.0863e-03  3.1300e-04  0:06:38 1764
   237  1.1107e-03  2.3377e-03  5.4646e-04  1.2283e-01  1.1083e-03  1.0662e-03  3.1023e-04  0:05:18 1763
   238  1.0325e-03  2.3142e-03  5.5081e-04  1.3163e-01  1.0304e-03  1.0454e-03  3.0839e-04  0:04:14 1762
   239  9.5537e-04  2.2994e-03  5.5533e-04  1.3954e-01  9.5337e-04  1.0242e-03  3.0452e-04  0:03:23 1761
   240  8.8076e-04  2.2926e-03  5.5966e-04  1.4690e-01  8.7894e-04  1.0032e-03  3.0410e-04  0:02:43 1760
   241  8.1070e-04  2.2932e-03  5.6346e-04  1.5338e-01  8.0907e-04  9.8405e-04  3.0355e-04  0:02:10 1759
   242  7.4734e-04  2.3005e-03  5.6636e-04  1.5891e-01  7.4589e-04  9.6507e-04  3.0224e-04  0:01:44 1758

  iter  continuity  x-velocity  y-velocity  z-velocity      energy           k       omega     time/iter
   243  6.9287e-04  2.3135e-03  5.6808e-04  1.6311e-01  6.9161e-04  9.4784e-04  3.0211e-04  0:01:23 1757
   244  6.4934e-04  2.3313e-03  5.6843e-04  1.6607e-01  6.4826e-04  9.3202e-04  3.0344e-04  0:01:06 1756
   245  6.1832e-04  2.3526e-03  5.6723e-04  1.6797e-01  6.1740e-04  9.1744e-04  3.0219e-04  0:00:53 1755
   246  6.0088e-04  2.3763e-03  5.6421e-04  1.6851e-01  6.0009e-04  9.0323e-04  3.0387e-04  0:00:42 1754
   247  5.9676e-04  2.4021e-03  5.5912e-04  1.6759e-01  5.9607e-04  8.9077e-04  3.0470e-04  0:06:25 1753
   248  6.0455e-04  2.4288e-03  5.5245e-04  1.6541e-01  6.0392e-04  8.7907e-04  3.0516e-04  0:05:07 1752
   249  6.2177e-04  2.4545e-03  5.4418e-04  1.6228e-01  6.2117e-04  8.6760e-04  3.0361e-04  0:04:06 1751
   250  6.4662e-04  2.4811e-03  5.3726e-04  1.5817e-01  6.4602e-04  8.5694e-04  3.0255e-04  0:03:17 1750
   251  6.7618e-04  2.5066e-03  5.2836e-04  1.5314e-01  6.7554e-04  8.4728e-04  3.0274e-04  0:02:37 1749
   252  7.0810e-04  2.5299e-03  5.1794e-04  1.4727e-01  7.0741e-04  8.3838e-04  3.0359e-04  0:02:06 1748
   253  7.4051e-04  2.5506e-03  5.0661e-04  1.4059e-01  7.3977e-04  8.2978e-04  3.0395e-04  0:01:40 1747

  iter  continuity  x-velocity  y-velocity  z-velocity      energy           k       omega     time/iter
   254  7.7201e-04  2.5684e-03  4.9471e-04  1.3319e-01  7.7120e-04  8.2156e-04  3.0142e-04  0:01:20 1746
   255  8.0141e-04  2.5827e-03  4.8247e-04  1.2511e-01  8.0052e-04  8.1402e-04  2.9824e-04  0:01:04 1745
   256  8.2811e-04  2.5936e-03  4.7014e-04  1.1646e-01  8.2715e-04  8.0677e-04  2.9449e-04  0:00:51 1744
   257  8.5157e-04  2.6010e-03  4.5798e-04  1.0734e-01  8.5055e-04  7.9991e-04  2.9111e-04  0:00:41 1743
   258  8.7139e-04  2.6046e-03  4.4620e-04  9.7951e-02  8.7030e-04  7.9397e-04  2.8733e-04  0:06:21 1742
   259  8.8738e-04  2.6043e-03  4.3501e-04  8.8446e-02  8.8623e-04  7.9018e-04  2.8463e-04  0:05:05 1741
   260  8.9962e-04  2.6003e-03  4.2470e-04  7.9049e-02  8.9841e-04  7.8713e-04  2.8183e-04  0:04:04 1740
   261  9.0795e-04  2.5926e-03  4.1545e-04  6.9987e-02  9.0669e-04  7.8482e-04  2.7868e-04  0:03:15 1739
   262  9.1259e-04  2.5814e-03  4.0740e-04  6.1410e-02  9.1129e-04  7.8269e-04  2.7570e-04  0:02:36 1738
   263  9.1371e-04  2.5668e-03  4.0064e-04  5.3759e-02  9.1238e-04  7.8127e-04  2.7381e-04  0:02:05 1737
   264  9.1144e-04  2.5489e-03  3.9525e-04  4.7531e-02  9.1007e-04  7.7975e-04  2.7200e-04  0:01:40 1736

  iter  continuity  x-velocity  y-velocity  z-velocity      energy           k       omega     time/iter
   265  9.0595e-04  2.5281e-03  3.9122e-04  4.3135e-02  9.0456e-04  7.7785e-04  2.6957e-04  0:01:20 1735
   266  8.9758e-04  2.5044e-03  3.8857e-04  4.0943e-02  8.9616e-04  7.7502e-04  2.6718e-04  0:01:04 1734
   267  8.8660e-04  2.4780e-03  3.8731e-04  4.1149e-02  8.8516e-04  7.7137e-04  2.6425e-04  0:00:51 1733
   268  8.7329e-04  2.4494e-03  3.8735e-04  4.3442e-02  8.7184e-04  7.6809e-04  2.6052e-04  0:06:27 1732
   269  8.5800e-04  2.4187e-03  3.8856e-04  4.7165e-02  8.5654e-04  7.6573e-04  2.5712e-04  0:05:10 1731
   270  8.4105e-04  2.3864e-03  3.9086e-04  5.1824e-02  8.3959e-04  7.6372e-04  2.5335e-04  0:04:07 1730
   271  8.2288e-04  2.3529e-03  3.9400e-04  5.6889e-02  8.2142e-04  7.6264e-04  2.5119e-04  0:03:18 1729
   272  8.0389e-04  2.3182e-03  3.9785e-04  6.2101e-02  8.0243e-04  7.6124e-04  2.4904e-04  0:02:38 1728
   273  7.8444e-04  2.2827e-03  4.0224e-04  6.7026e-02  7.8300e-04  7.5949e-04  2.4736e-04  0:02:06 1727
   274  7.6488e-04  2.2467e-03  4.0701e-04  7.1641e-02  7.6345e-04  7.5819e-04  2.4543e-04  0:01:41 1726
   275  7.4546e-04  2.2105e-03  4.1200e-04  7.5886e-02  7.4404e-04  7.5713e-04  2.4371e-04  0:01:21 1725

  iter  continuity  x-velocity  y-velocity  z-velocity      energy           k       omega     time/iter
   276  7.2644e-04  2.1745e-03  4.1702e-04  7.9637e-02  7.2505e-04  7.5582e-04  2.4156e-04  0:01:05 1724
   277  7.0802e-04  2.1389e-03  4.2195e-04  8.2764e-02  7.0665e-04  7.5490e-04  2.4027e-04  0:00:52 1723
   278  6.9039e-04  2.1039e-03  4.2674e-04  8.5181e-02  6.8905e-04  7.5474e-04  2.3993e-04  0:00:41 1722
   279  6.7376e-04  2.0696e-03  4.3121e-04  8.6924e-02  6.7246e-04  7.5402e-04  2.3974e-04  0:06:17 1721
   280  6.5837e-04  2.0363e-03  4.3527e-04  8.8000e-02  6.5710e-04  7.5304e-04  2.3920e-04  0:05:02 1720
   281  6.4437e-04  2.0044e-03  4.3884e-04  8.8384e-02  6.4315e-04  7.5189e-04  2.3889e-04  0:04:01 1719
   282  6.3199e-04  1.9740e-03  4.4182e-04  8.8194e-02  6.3081e-04  7.5134e-04  2.3813e-04  0:03:13 1718
   283  6.2124e-04  1.9450e-03  4.4386e-04  8.7452e-02  6.2011e-04  7.5158e-04  2.3864e-04  0:02:34 1717
   284  6.1198e-04  1.9178e-03  4.4494e-04  8.6153e-02  6.1089e-04  7.5201e-04  2.3984e-04  0:02:03 1716
   285  6.0408e-04  1.8923e-03  4.4514e-04  8.4344e-02  6.0304e-04  7.5233e-04  2.3921e-04  0:01:39 1715
   286  5.9751e-04  1.8687e-03  4.4462e-04  8.2036e-02  5.9653e-04  7.5249e-04  2.3731e-04  0:01:19 1714

  iter  continuity  x-velocity  y-velocity  z-velocity      energy           k       omega     time/iter
   287  5.9204e-04  1.8470e-03  4.4319e-04  7.9261e-02  5.9111e-04  7.5201e-04  2.3584e-04  0:01:03 1713
   288  5.8753e-04  1.8270e-03  4.4088e-04  7.6090e-02  5.8666e-04  7.5201e-04  2.3443e-04  0:00:50 1712
   289  5.8380e-04  1.8085e-03  4.3765e-04  7.2541e-02  5.8297e-04  7.5262e-04  2.3271e-04  0:00:40 1711
   290  5.8033e-04  1.7913e-03  4.3357e-04  6.8635e-02  5.7956e-04  7.5326e-04  2.3066e-04  0:06:14 1710
   291  5.7684e-04  1.7754e-03  4.2867e-04  6.4429e-02  5.7613e-04  7.5301e-04  2.2782e-04  0:04:59 1709
   292  5.7317e-04  1.7607e-03  4.2294e-04  5.9987e-02  5.7250e-04  7.5225e-04  2.2474e-04  0:03:59 1708
   293  5.6908e-04  1.7468e-03  4.1631e-04  5.5353e-02  5.6845e-04  7.5149e-04  2.2300e-04  0:03:11 1707
   294  5.6440e-04  1.7342e-03  4.0916e-04  5.0596e-02  5.6382e-04  7.5047e-04  2.2114e-04  0:02:33 1706
   295  5.5910e-04  1.7226e-03  4.0140e-04  4.5744e-02  5.5856e-04  7.4929e-04  2.1976e-04  0:02:02 1705
   296  5.5298e-04  1.7118e-03  3.9309e-04  4.1026e-02  5.5248e-04  7.4788e-04  2.1921e-04  0:01:38 1704
   297  5.4589e-04  1.7014e-03  3.8426e-04  3.6391e-02  5.4543e-04  7.4591e-04  2.1803e-04  0:01:18 1703

  iter  continuity  x-velocity  y-velocity  z-velocity      energy           k       omega     time/iter
   298  5.3771e-04  1.6915e-03  3.7495e-04  3.2104e-02  5.3729e-04  7.4355e-04  2.1673e-04  0:01:02 1702
   299  5.2848e-04  1.6816e-03  3.6519e-04  2.8386e-02  5.2808e-04  7.4067e-04  2.1569e-04  0:00:50 1701
   300  5.1824e-04  1.6721e-03  3.5512e-04  2.5485e-02  5.1787e-04  7.3734e-04  2.1485e-04  0:06:20 1700
   301  5.0704e-04  1.6631e-03  3.4494e-04  2.3415e-02  5.0670e-04  7.3398e-04  2.1263e-04  0:05:04 1699
   302  4.9493e-04  1.6542e-03  3.3470e-04  2.2490e-02  4.9460e-04  7.3068e-04  2.1066e-04  0:04:03 1698
   303  4.8191e-04  1.6453e-03  3.2449e-04  2.2763e-02  4.8160e-04  7.2644e-04  2.0957e-04  0:03:14 1697
   304  4.6798e-04  1.6361e-03  3.1427e-04  2.4096e-02  4.6768e-04  7.2204e-04  2.0843e-04  0:02:35 1696
   305  4.5344e-04  1.6266e-03  3.0445e-04  2.6212e-02  4.5315e-04  7.1761e-04  2.0716e-04  0:02:04 1695
   306  4.3839e-04  1.6170e-03  2.9509e-04  2.8765e-02  4.3810e-04  7.1320e-04  2.0616e-04  0:01:39 1694
   307  4.2294e-04  1.6071e-03  2.8618e-04  3.1542e-02  4.2264e-04  7.0851e-04  2.0451e-04  0:01:19 1693
   308  4.0728e-04  1.5970e-03  2.7787e-04  3.4345e-02  4.0697e-04  7.0404e-04  2.0266e-04  0:01:03 1692

  iter  continuity  x-velocity  y-velocity  z-velocity      energy           k       omega     time/iter
   309  3.9142e-04  1.5867e-03  2.7039e-04  3.7066e-02  3.9108e-04  6.9989e-04  2.0109e-04  0:00:51 1691
   310  3.7552e-04  1.5761e-03  2.6380e-04  3.9622e-02  3.7514e-04  6.9557e-04  1.9907e-04  0:06:19 1690
   311  3.6005e-04  1.5650e-03  2.5819e-04  4.1971e-02  3.5962e-04  6.9112e-04  1.9812e-04  0:05:03 1689
   312  3.4502e-04  1.5536e-03  2.5350e-04  4.4076e-02  3.4453e-04  6.8641e-04  1.9654e-04  0:04:02 1688
   313  3.3062e-04  1.5417e-03  2.4968e-04  4.5904e-02  3.3005e-04  6.8144e-04  1.9456e-04  0:03:13 1687
   314  3.1707e-04  1.5294e-03  2.4698e-04  4.7410e-02  3.1640e-04  6.7648e-04  1.9206e-04  0:02:35 1686
   315  3.0426e-04  1.5170e-03  2.4538e-04  4.8609e-02  3.0348e-04  6.7138e-04  1.9012e-04  0:02:04 1685
   316  2.9319e-04  1.5043e-03  2.4495e-04  4.9489e-02  2.9226e-04  6.6601e-04  1.8868e-04  0:01:39 1684
   317  2.8380e-04  1.4916e-03  2.4574e-04  5.0045e-02  2.8272e-04  6.6040e-04  1.8753e-04  0:01:19 1683
   318  2.7628e-04  1.4787e-03  2.4764e-04  5.0279e-02  2.7503e-04  6.5418e-04  1.8726e-04  0:01:03 1682
   319  2.7082e-04  1.4654e-03  2.5059e-04  5.0164e-02  2.6938e-04  6.4768e-04  1.8745e-04  0:00:51 1681

  iter  continuity  x-velocity  y-velocity  z-velocity      energy           k       omega     time/iter
   320  2.6762e-04  1.4520e-03  2.5455e-04  4.9732e-02  2.6598e-04  6.4111e-04  1.8777e-04  0:00:40 1680
   321  2.6669e-04  1.4383e-03  2.5955e-04  4.9012e-02  2.6485e-04  6.3420e-04  1.8688e-04  0:06:08 1679
   322  2.6802e-04  1.4246e-03  2.6553e-04  4.8023e-02  2.6597e-04  6.2742e-04  1.8733e-04  0:04:54 1678
   323  2.7158e-04  1.4108e-03  2.7240e-04  4.6797e-02  2.6934e-04  6.2040e-04  1.8709e-04  0:03:55 1677
   324  2.7719e-04  1.3971e-03  2.8010e-04  4.5319e-02  2.7476e-04  6.1371e-04  1.8664e-04  0:03:08 1676
   325  2.8465e-04  1.3834e-03  2.8866e-04  4.3615e-02  2.8204e-04  6.0702e-04  1.8587e-04  0:02:30 1675
   326  2.9373e-04  1.3698e-03  2.9793e-04  4.1695e-02  2.9096e-04  6.0109e-04  1.8481e-04  0:02:00 1674
   327  3.0420e-04  1.3563e-03  3.0782e-04  3.9559e-02  3.0128e-04  5.9594e-04  1.8315e-04  0:01:36 1673
   328  3.1566e-04  1.3429e-03  3.1832e-04  3.7304e-02  3.1260e-04  5.9183e-04  1.8185e-04  0:01:17 1672
   329  3.2789e-04  1.3296e-03  3.2936e-04  3.4936e-02  3.2470e-04  5.8787e-04  1.8019e-04  0:01:01 1671
   330  3.4107e-04  1.3165e-03  3.4089e-04  3.2493e-02  3.3775e-04  5.8366e-04  1.7848e-04  0:00:49 1670

  iter  continuity  x-velocity  y-velocity  z-velocity      energy           k       omega     time/iter
   331  3.5479e-04  1.3036e-03  3.5279e-04  2.9977e-02  3.5137e-04  5.7940e-04  1.7704e-04  0:00:39 1669
   332  3.6885e-04  1.2910e-03  3.6505e-04  2.7415e-02  3.6532e-04  5.7535e-04  1.7590e-04  0:06:05 1668
   333  3.8305e-04  1.2787e-03  3.7761e-04  2.4771e-02  3.7943e-04  5.7171e-04  1.7459e-04  0:04:52 1667
   334  3.9716e-04  1.2667e-03  3.9041e-04  2.2235e-02  3.9345e-04  5.6823e-04  1.7334e-04  0:03:53 1666
   335  4.1104e-04  1.2549e-03  4.0341e-04  1.9830e-02  4.0726e-04  5.6495e-04  1.7227e-04  0:03:07 1665
   336  4.2463e-04  1.2433e-03  4.1653e-04  1.7595e-02  4.2077e-04  5.6154e-04  1.7082e-04  0:02:29 1664
   337  4.3765e-04  1.2323e-03  4.2974e-04  1.5661e-02  4.3372e-04  5.5866e-04  1.6971e-04  0:01:59 1663
   338  4.5000e-04  1.2214e-03  4.4303e-04  1.4110e-02  4.4600e-04  5.5558e-04  1.6846e-04  0:01:35 1662
   339  4.6152e-04  1.2110e-03  4.5629e-04  1.3003e-02  4.5746e-04  5.5246e-04  1.6730e-04  0:01:16 1661
   340  4.7220e-04  1.2012e-03  4.6942e-04  1.2467e-02  4.6809e-04  5.4980e-04  1.6621e-04  0:01:01 1660
   341  4.8203e-04  1.1920e-03  4.8229e-04  1.2581e-02  4.7786e-04  5.4776e-04  1.6556e-04  0:00:49 1659

  iter  continuity  x-velocity  y-velocity  z-velocity      energy           k       omega     time/iter
   342  4.9062e-04  1.1831e-03  4.9486e-04  1.3291e-02  4.8640e-04  5.4640e-04  1.6498e-04  0:06:11 1658
   343  4.9818e-04  1.1747e-03  5.0707e-04  1.4401e-02  4.9392e-04  5.4503e-04  1.6430e-04  0:04:56 1657
   344  5.0500e-04  1.1671e-03  5.1886e-04  1.5796e-02  5.0069e-04  5.4356e-04  1.6358e-04  0:03:57 1656
   345  5.1094e-04  1.1601e-03  5.3019e-04  1.7342e-02  5.0660e-04  5.4178e-04  1.6250e-04  0:03:09 1655
   346  5.1565e-04  1.1538e-03  5.4098e-04  1.8932e-02  5.1128e-04  5.4010e-04  1.6145e-04  0:02:31 1654
   347  5.1929e-04  1.1483e-03  5.5122e-04  2.0518e-02  5.1489e-04  5.3838e-04  1.6063e-04  0:02:01 1653
   348  5.2192e-04  1.1435e-03  5.6087e-04  2.2045e-02  5.1750e-04  5.3691e-04  1.6045e-04  0:01:37 1652
   349  5.2371e-04  1.1393e-03  5.6980e-04  2.3464e-02  5.1927e-04  5.3584e-04  1.6040e-04  0:01:17 1651
   350  5.2438e-04  1.1356e-03  5.7799e-04  2.4777e-02  5.1992e-04  5.3457e-04  1.6011e-04  0:01:02 1650
   351  5.2414e-04  1.1324e-03  5.8541e-04  2.5999e-02  5.1966e-04  5.3332e-04  1.5970e-04  0:00:49 1649
   352  5.2312e-04  1.1299e-03  5.9198e-04  2.7141e-02  5.1862e-04  5.3214e-04  1.5977e-04  0:06:09 1648

  iter  continuity  x-velocity  y-velocity  z-velocity      energy           k       omega     time/iter
   353  5.2139e-04  1.1279e-03  5.9764e-04  2.8157e-02  5.1688e-04  5.3047e-04  1.5962e-04  0:04:55 1647
   354  5.1902e-04  1.1257e-03  6.0239e-04  2.9029e-02  5.1450e-04  5.2874e-04  1.5894e-04  0:03:56 1646
   355  5.1616e-04  1.1248e-03  6.0667e-04  2.9752e-02  5.1163e-04  5.2709e-04  1.5873e-04  0:03:09 1645
   356  5.1291e-04  1.1244e-03  6.0993e-04  3.0336e-02  5.0837e-04  5.2535e-04  1.5892e-04  0:02:31 1644
   357  5.0932e-04  1.1239e-03  6.1224e-04  3.0791e-02  5.0477e-04  5.2250e-04  1.5875e-04  0:02:01 1643
   358  5.0550e-04  1.1232e-03  6.1366e-04  3.1103e-02  5.0093e-04  5.1926e-04  1.5880e-04  0:01:36 1642
   359  5.0148e-04  1.1223e-03  6.1423e-04  3.1285e-02  4.9688e-04  5.1623e-04  1.5889e-04  0:01:17 1641
   360  4.9726e-04  1.1213e-03  6.1400e-04  3.1339e-02  4.9264e-04  5.1329e-04  1.5893e-04  0:01:02 1640
   361  4.9291e-04  1.1199e-03  6.1304e-04  3.1290e-02  4.8826e-04  5.1040e-04  1.5896e-04  0:00:49 1639
   362  4.8855e-04  1.1183e-03  6.1141e-04  3.1130e-02  4.8386e-04  5.0739e-04  1.5886e-04  0:06:07 1638
   363  4.8424e-04  1.1161e-03  6.0920e-04  3.0873e-02  4.7951e-04  5.0373e-04  1.5883e-04  0:04:53 1637

  iter  continuity  x-velocity  y-velocity  z-velocity      energy           k       omega     time/iter
   364  4.8005e-04  1.1135e-03  6.0652e-04  3.0524e-02  4.7526e-04  5.0085e-04  1.5893e-04  0:03:55 1636
   365  4.7605e-04  1.1104e-03  6.0344e-04  3.0074e-02  4.7120e-04  4.9774e-04  1.5877e-04  0:03:08 1635
   366  4.7231e-04  1.1067e-03  6.0008e-04  2.9539e-02  4.6739e-04  4.9445e-04  1.5844e-04  0:02:30 1634
   367  4.6888e-04  1.1023e-03  5.9651e-04  2.8918e-02  4.6388e-04  4.9103e-04  1.5824e-04  0:02:00 1633
   368  4.6585e-04  1.0974e-03  5.9284e-04  2.8225e-02  4.6076e-04  4.8748e-04  1.5783e-04  0:01:36 1632
   369  4.6327e-04  1.0919e-03  5.8916e-04  2.7477e-02  4.5808e-04  4.8376e-04  1.5737e-04  0:01:17 1631
   370  4.6116e-04  1.0858e-03  5.8557e-04  2.6672e-02  4.5587e-04  4.7990e-04  1.5678e-04  0:01:01 1630
   371  4.5972e-04  1.0789e-03  5.8207e-04  2.5820e-02  4.5433e-04  4.7558e-04  1.5597e-04  0:00:49 1629
   372  4.5900e-04  1.0720e-03  5.7858e-04  2.4935e-02  4.5349e-04  4.7082e-04  1.5517e-04  0:00:39 1628
   373  4.5892e-04  1.0645e-03  5.7555e-04  2.4028e-02  4.5329e-04  4.6588e-04  1.5438e-04  0:05:57 1627
   374  4.5940e-04  1.0565e-03  5.7303e-04  2.3105e-02  4.5364e-04  4.6130e-04  1.5372e-04  0:04:45 1626

  iter  continuity  x-velocity  y-velocity  z-velocity      energy           k       omega     time/iter
   375  4.6039e-04  1.0482e-03  5.7112e-04  2.2148e-02  4.5451e-04  4.5681e-04  1.5316e-04  0:03:48 1625
   376  4.6189e-04  1.0396e-03  5.6992e-04  2.1204e-02  4.5588e-04  4.5259e-04  1.5259e-04  0:03:02 1624
   377  4.6392e-04  1.0308e-03  5.6948e-04  2.0270e-02  4.5778e-04  4.4848e-04  1.5187e-04  0:02:26 1623
   378  4.6633e-04  1.0218e-03  5.6984e-04  1.9361e-02  4.6006e-04  4.4460e-04  1.5097e-04  0:01:57 1622
   379  4.6912e-04  1.0126e-03  5.7104e-04  1.8476e-02  4.6272e-04  4.4085e-04  1.4994e-04  0:01:33 1621
   380  4.7225e-04  1.0033e-03  5.7310e-04  1.7616e-02  4.6572e-04  4.3578e-04  1.4882e-04  0:01:14 1620
   381  4.7563e-04  9.9404e-04  5.7599e-04  1.6787e-02  4.6897e-04  4.2977e-04  1.4782e-04  0:01:00 1619
   382  4.7918e-04  9.8484e-04  5.7970e-04  1.5997e-02  4.7240e-04  4.2370e-04  1.4687e-04  0:00:48 1618
   383  4.8283e-04  9.7577e-04  5.8421e-04  1.5254e-02  4.7593e-04  4.1756e-04  1.4564e-04  0:06:01 1617
   384  4.8648e-04  9.6690e-04  5.8947e-04  1.4559e-02  4.7946e-04  4.1138e-04  1.4393e-04  0:04:49 1616
   385  4.8999e-04  9.5824e-04  5.9543e-04  1.3884e-02  4.8286e-04  4.0506e-04  1.4199e-04  0:03:51 1615

  iter  continuity  x-velocity  y-velocity  z-velocity      energy           k       omega     time/iter
   386  4.9333e-04  9.4987e-04  6.0204e-04  1.3267e-02  4.8609e-04  3.9960e-04  1.4033e-04  0:03:05 1614
   387  4.9638e-04  9.4183e-04  6.0924e-04  1.2700e-02  4.8904e-04  3.9434e-04  1.3890e-04  0:02:28 1613
   388  4.9908e-04  9.3417e-04  6.1697e-04  1.2189e-02  4.9163e-04  3.8910e-04  1.3768e-04  0:01:58 1612
   389  5.0133e-04  9.2696e-04  6.2515e-04  1.1730e-02  4.9379e-04  3.8400e-04  1.3628e-04  0:01:34 1611
   390  5.0307e-04  9.2022e-04  6.3371e-04  1.1322e-02  4.9543e-04  3.7896e-04  1.3471e-04  0:01:15 1610
   391  5.0427e-04  9.1403e-04  6.4258e-04  1.0961e-02  4.9655e-04  3.7401e-04  1.3298e-04  0:01:00 1609
   392  5.0488e-04  9.0841e-04  6.5166e-04  1.0650e-02  4.9708e-04  3.6915e-04  1.3116e-04  0:00:48 1608
   393  5.0488e-04  9.0340e-04  6.6087e-04  1.0387e-02  4.9700e-04  3.6450e-04  1.2921e-04  0:00:39 1607
   394  5.0424e-04  8.9902e-04  6.7013e-04  1.0158e-02  4.9630e-04  3.6000e-04  1.2727e-04  0:05:52 1606
   395  5.0297e-04  8.9527e-04  6.7935e-04  9.9570e-03  4.9497e-04  3.5561e-04  1.2547e-04  0:04:41 1605
   396  5.0107e-04  8.9216e-04  6.8844e-04  9.7852e-03  4.9301e-04  3.5133e-04  1.2363e-04  0:03:45 1604

  iter  continuity  x-velocity  y-velocity  z-velocity      energy           k       omega     time/iter
   397  4.9853e-04  8.8968e-04  6.9733e-04  9.6400e-03  4.9043e-04  3.4735e-04  1.2180e-04  0:03:00 1603
   398  4.9538e-04  8.8779e-04  7.0593e-04  9.5237e-03  4.8725e-04  3.4350e-04  1.1970e-04  0:02:24 1602
   399  4.9165e-04  8.8649e-04  7.1413e-04  9.4341e-03  4.8349e-04  3.3975e-04  1.1775e-04  0:01:55 1601
   400  4.8737e-04  8.8572e-04  7.2187e-04  9.3674e-03  4.7918e-04  3.3593e-04  1.1601e-04  0:01:32 1600
   401  4.8259e-04  8.8542e-04  7.2906e-04  9.3220e-03  4.7439e-04  3.3202e-04  1.1434e-04  0:01:14 1599
   402  4.7735e-04  8.8554e-04  7.3562e-04  9.2870e-03  4.6915e-04  3.2803e-04  1.1260e-04  0:00:59 1598
   403  4.7172e-04  8.8601e-04  7.4150e-04  9.2653e-03  4.6352e-04  3.2396e-04  1.1089e-04  0:00:47 1597
   404  4.6574e-04  8.8671e-04  7.4664e-04  9.2523e-03  4.5755e-04  3.1984e-04  1.0914e-04  0:05:57 1596
   405  4.5947e-04  8.8770e-04  7.5102e-04  9.2454e-03  4.5129e-04  3.1588e-04  1.0754e-04  0:04:45 1595
   406  4.5297e-04  8.8837e-04  7.5455e-04  9.2423e-03  4.4483e-04  3.1197e-04  1.0599e-04  0:03:48 1594
   407  4.4631e-04  8.8924e-04  7.5720e-04  9.2424e-03  4.3819e-04  3.0795e-04  1.0428e-04  0:03:02 1593

  iter  continuity  x-velocity  y-velocity  z-velocity      energy           k       omega     time/iter
   408  4.3954e-04  8.9000e-04  7.5898e-04  9.2473e-03  4.3146e-04  3.0396e-04  1.0256e-04  0:02:26 1592
   409  4.3273e-04  8.9047e-04  7.5989e-04  9.2509e-03  4.2470e-04  2.9998e-04  1.0092e-04  0:01:57 1591
   410  4.2593e-04  8.9053e-04  7.5991e-04  9.2511e-03  4.1794e-04  2.9605e-04  9.9430e-05  0:01:33 1590
   411  4.1921e-04  8.9015e-04  7.5904e-04  9.2421e-03  4.1127e-04  2.9207e-04  9.8146e-05  0:01:14 1589
   412  4.1267e-04  8.8922e-04  7.5728e-04  9.2312e-03  4.0479e-04  2.8808e-04  9.7022e-05  0:01:00 1588
   413  4.0640e-04  8.8769e-04  7.5467e-04  9.2182e-03  3.9857e-04  2.8403e-04  9.6047e-05  0:00:48 1587
   414  4.0039e-04  8.8552e-04  7.5121e-04  9.1999e-03  3.9262e-04  2.8004e-04  9.5100e-05  0:00:38 1586
   415  3.9465e-04  8.8264e-04  7.4697e-04  9.1736e-03  3.8695e-04  2.7582e-04  9.3940e-05  0:05:47 1585
   416  3.8921e-04  8.7904e-04  7.4199e-04  9.1414e-03  3.8157e-04  2.7170e-04  9.2947e-05  0:04:38 1584
   417  3.8412e-04  8.7471e-04  7.3630e-04  9.1023e-03  3.7654e-04  2.6767e-04  9.2053e-05  0:03:42 1583
   418  3.7941e-04  8.6964e-04  7.2997e-04  9.0526e-03  3.7189e-04  2.6369e-04  9.1094e-05  0:02:58 1582

  iter  continuity  x-velocity  y-velocity  z-velocity      energy           k       omega     time/iter
   419  3.7510e-04  8.6383e-04  7.2307e-04  8.9943e-03  3.6764e-04  2.5975e-04  9.0109e-05  0:02:22 1581
   420  3.7123e-04  8.5728e-04  7.1566e-04  8.9278e-03  3.6382e-04  2.5562e-04  8.9318e-05  0:01:53 1580
   421  3.6779e-04  8.5002e-04  7.0783e-04  8.8549e-03  3.6043e-04  2.5152e-04  8.8498e-05  0:01:31 1579
   422  3.6481e-04  8.4209e-04  6.9965e-04  8.7764e-03  3.5750e-04  2.4756e-04  8.7588e-05  0:01:13 1578
   423  3.6229e-04  8.3354e-04  6.9120e-04  8.6907e-03  3.5502e-04  2.4366e-04  8.6610e-05  0:00:58 1577
   424  3.6022e-04  8.2442e-04  6.8257e-04  8.5974e-03  3.5299e-04  2.3985e-04  8.5662e-05  0:06:02 1576
   425  3.5860e-04  8.1481e-04  6.7385e-04  8.4993e-03  3.5141e-04  2.3611e-04  8.4745e-05  0:04:49 1575
   426  3.5743e-04  8.0476e-04  6.6511e-04  8.3968e-03  3.5027e-04  2.3245e-04  8.3779e-05  0:03:51 1574
   427  3.5670e-04  7.9434e-04  6.5644e-04  8.2921e-03  3.4957e-04  2.2890e-04  8.2800e-05  0:03:05 1573
   428  3.5640e-04  7.8364e-04  6.4792e-04  8.1817e-03  3.4929e-04  2.2542e-04  8.1829e-05  0:02:28 1572
   429  3.5651e-04  7.7274e-04  6.3963e-04  8.0769e-03  3.4942e-04  2.2181e-04  8.0898e-05  0:01:58 1571

  iter  continuity  x-velocity  y-velocity  z-velocity      energy           k       omega     time/iter
   430  3.5701e-04  7.6171e-04  6.3163e-04  7.9717e-03  3.4993e-04  2.1822e-04  7.9952e-05  0:01:34 1570
   431  3.5786e-04  7.5062e-04  6.2400e-04  7.8729e-03  3.5080e-04  2.1471e-04  7.8939e-05  0:01:15 1569
   432  3.5903e-04  7.3957e-04  6.1678e-04  7.7835e-03  3.5197e-04  2.1128e-04  7.7986e-05  0:01:00 1568
   433  3.6049e-04  7.2861e-04  6.1002e-04  7.6992e-03  3.5344e-04  2.0787e-04  7.7025e-05  0:06:02 1567
   434  3.6221e-04  7.1784e-04  6.0378e-04  7.6238e-03  3.5517e-04  2.0453e-04  7.5948e-05  0:04:49 1566
   435  3.6414e-04  7.0730e-04  5.9808e-04  7.5607e-03  3.5710e-04  2.0120e-04  7.4903e-05  0:03:51 1565
   436  3.6621e-04  6.9706e-04  5.9294e-04  7.5080e-03  3.5917e-04  1.9794e-04  7.3943e-05  0:03:05 1564
   437  3.6839e-04  6.8717e-04  5.8841e-04  7.4674e-03  3.6135e-04  1.9482e-04  7.3121e-05  0:02:28 1563
   438  3.7062e-04  6.7769e-04  5.8448e-04  7.4395e-03  3.6357e-04  1.9172e-04  7.2338e-05  0:01:58 1562
   439  3.7288e-04  6.6867e-04  5.8115e-04  7.4193e-03  3.6582e-04  1.8865e-04  7.1493e-05  0:01:34 1561
   440  3.7510e-04  6.6015e-04  5.7843e-04  7.4087e-03  3.6803e-04  1.8565e-04  7.0640e-05  0:01:16 1560

  iter  continuity  x-velocity  y-velocity  z-velocity      energy           k       omega     time/iter
   441  3.7724e-04  6.5217e-04  5.7630e-04  7.4097e-03  3.7016e-04  1.8272e-04  6.9775e-05  0:01:00 1559
   442  3.7924e-04  6.4474e-04  5.7475e-04  7.4186e-03  3.7215e-04  1.7985e-04  6.8908e-05  0:00:48 1558
   443  3.8107e-04  6.3789e-04  5.7375e-04  7.4390e-03  3.7397e-04  1.7702e-04  6.8090e-05  0:05:50 1557
   444  3.8269e-04  6.3163e-04  5.7327e-04  7.4717e-03  3.7557e-04  1.7429e-04  6.7281e-05  0:04:40 1556
   445  3.8405e-04  6.2599e-04  5.7328e-04  7.5181e-03  3.7692e-04  1.7167e-04  6.6458e-05  0:03:44 1555
   446  3.8513e-04  6.2091e-04  5.7373e-04  7.5760e-03  3.7798e-04  1.6908e-04  6.5607e-05  0:02:59 1554
   447  3.8590e-04  6.1647e-04  5.7457e-04  7.6441e-03  3.7874e-04  1.6648e-04  6.4726e-05  0:02:23 1553
   448  3.8634e-04  6.1263e-04  5.7577e-04  7.7208e-03  3.7917e-04  1.6391e-04  6.3795e-05  0:01:54 1552
   449  3.8643e-04  6.0938e-04  5.7726e-04  7.8043e-03  3.7924e-04  1.6137e-04  6.2817e-05  0:01:31 1551
   450  3.8605e-04  6.0661e-04  5.7901e-04  7.8919e-03  3.7884e-04  1.5886e-04  6.1827e-05  0:01:13 1550
   451  3.8533e-04  6.0443e-04  5.8096e-04  7.9826e-03  3.7811e-04  1.5629e-04  6.0910e-05  0:00:58 1549

  iter  continuity  x-velocity  y-velocity  z-velocity      energy           k       omega     time/iter
   452  3.8426e-04  6.0281e-04  5.8305e-04  8.0754e-03  3.7702e-04  1.5389e-04  6.0028e-05  0:00:47 1548
   453  3.8283e-04  6.0170e-04  5.8523e-04  8.1724e-03  3.7558e-04  1.5157e-04  5.9191e-05  0:00:37 1547
   454  3.8103e-04  6.0107e-04  5.8745e-04  8.2716e-03  3.7377e-04  1.4932e-04  5.8351e-05  0:05:39 1546
   455  3.7887e-04  6.0089e-04  5.8966e-04  8.3693e-03  3.7160e-04  1.4711e-04  5.7524e-05  0:04:31 1545
   456  3.7636e-04  6.0111e-04  5.9181e-04  8.4643e-03  3.6909e-04  1.4500e-04  5.6689e-05  0:03:37 1544
   457  3.7350e-04  6.0167e-04  5.9385e-04  8.5549e-03  3.6623e-04  1.4285e-04  5.5888e-05  0:02:53 1543
   458  3.7033e-04  6.0257e-04  5.9573e-04  8.6390e-03  3.6306e-04  1.4071e-04  5.5110e-05  0:02:19 1542
   459  3.6684e-04  6.0373e-04  5.9742e-04  8.7133e-03  3.5957e-04  1.3853e-04  5.4360e-05  0:01:51 1541
   460  3.6308e-04  6.0512e-04  5.9888e-04  8.7820e-03  3.5581e-04  1.3640e-04  5.3610e-05  0:01:29 1540
   461  3.5905e-04  6.0667e-04  6.0006e-04  8.8447e-03  3.5180e-04  1.3428e-04  5.2887e-05  0:01:11 1539
   462  3.5480e-04  6.0834e-04  6.0094e-04  8.9004e-03  3.4756e-04  1.3223e-04  5.2224e-05  0:00:57 1538

  iter  continuity  x-velocity  y-velocity  z-velocity      energy           k       omega     time/iter
   463  3.5034e-04  6.1008e-04  6.0150e-04  8.9478e-03  3.4312e-04  1.3023e-04  5.1577e-05  0:00:45 1537
   464  3.4571e-04  6.1183e-04  6.0169e-04  8.9853e-03  3.3850e-04  1.2822e-04  5.0941e-05  0:05:43 1536
   465  3.4092e-04  6.1356e-04  6.0151e-04  9.0116e-03  3.3373e-04  1.2623e-04  5.0342e-05  0:04:35 1535
   466  3.3600e-04  6.1521e-04  6.0094e-04  9.0257e-03  3.2884e-04  1.2422e-04  4.9756e-05  0:03:39 1534
   467  3.3098e-04  6.1675e-04  5.9997e-04  9.0266e-03  3.2385e-04  1.2225e-04  4.9163e-05  0:02:55 1533
   468  3.2588e-04  6.1813e-04  5.9858e-04  9.0146e-03  3.1879e-04  1.2032e-04  4.8580e-05  0:02:20 1532
   469  3.2074e-04  6.1930e-04  5.9678e-04  8.9908e-03  3.1369e-04  1.1840e-04  4.7979e-05  0:01:52 1531
   470  3.1558e-04  6.2022e-04  5.9457e-04  8.9546e-03  3.0856e-04  1.1651e-04  4.7324e-05  0:01:30 1530
   471  3.1043e-04  6.2086e-04  5.9194e-04  8.9084e-03  3.0345e-04  1.1463e-04  4.6731e-05  0:01:12 1529
   472  3.0529e-04  6.2119e-04  5.8890e-04  8.8520e-03  2.9836e-04  1.1274e-04  4.6129e-05  0:00:57 1528
   473  3.0021e-04  6.2119e-04  5.8546e-04  8.7858e-03  2.9332e-04  1.1086e-04  4.5528e-05  0:00:46 1527

  iter  continuity  x-velocity  y-velocity  z-velocity      energy           k       omega     time/iter
   474  2.9518e-04  6.2085e-04  5.8163e-04  8.7118e-03  2.8835e-04  1.0896e-04  4.4918e-05  0:00:37 1526
   475  2.9023e-04  6.2021e-04  5.7742e-04  8.6307e-03  2.8345e-04  1.0705e-04  4.4282e-05  0:05:34 1525
   476  2.8536e-04  6.1921e-04  5.7286e-04  8.5440e-03  2.7864e-04  1.0517e-04  4.3630e-05  0:04:27 1524
   477  2.8059e-04  6.1774e-04  5.6797e-04  8.4540e-03  2.7393e-04  1.0335e-04  4.2982e-05  0:03:34 1523
   478  2.7594e-04  6.1582e-04  5.6277e-04  8.3588e-03  2.6934e-04  1.0147e-04  4.2332e-05  0:02:51 1522
   479  2.7140e-04  6.1351e-04  5.5728e-04  8.2593e-03  2.6486e-04  9.9565e-05  4.1698e-05  0:02:17 1521
   480  2.6699e-04  6.1081e-04  5.5152e-04  8.1574e-03  2.6052e-04  9.7687e-05  4.1074e-05  0:01:49 1520
   481  2.6272e-04  6.0774e-04  5.4551e-04  8.0535e-03  2.5631e-04  9.5745e-05  4.0443e-05  0:01:27 1519
   482  2.5858e-04  6.0431e-04  5.3929e-04  7.9490e-03  2.5224e-04  9.3845e-05  3.9801e-05  0:01:10 1518
   483  2.5459e-04  6.0052e-04  5.3288e-04  7.8453e-03  2.4832e-04  9.1924e-05  3.9149e-05  0:00:56 1517
   484  2.5074e-04  5.9639e-04  5.2632e-04  7.7418e-03  2.4454e-04  8.9977e-05  3.8482e-05  0:00:45 1516

  iter  continuity  x-velocity  y-velocity  z-velocity      energy           k       omega     time/iter
   485  2.4704e-04  5.9194e-04  5.1962e-04  7.6387e-03  2.4091e-04  8.8019e-05  3.7772e-05  0:05:39 1515
   486  2.4348e-04  5.8719e-04  5.1282e-04  7.5360e-03  2.3742e-04  8.6082e-05  3.7092e-05  0:04:31 1514
   487  2.4007e-04  5.8216e-04  5.0595e-04  7.4370e-03  2.3408e-04  8.4183e-05  3.6434e-05  0:03:36 1513
   488  2.3681e-04  5.7687e-04  4.9901e-04  7.3393e-03  2.3088e-04  8.2280e-05  3.5791e-05  0:02:53 1512
   489  2.3368e-04  5.7136e-04  4.9205e-04  7.2448e-03  2.2783e-04  8.0513e-05  3.5147e-05  0:02:18 1511
   490  2.3070e-04  5.6563e-04  4.8508e-04  7.1522e-03  2.2492e-04  7.8775e-05  3.4511e-05  0:01:51 1510
   491  2.2784e-04  5.5972e-04  4.7813e-04  7.0599e-03  2.2213e-04  7.7084e-05  3.3880e-05  0:01:28 1509
   492  2.2512e-04  5.5365e-04  4.7122e-04  6.9697e-03  2.1948e-04  7.5396e-05  3.3263e-05  0:01:11 1508
   493  2.2252e-04  5.4745e-04  4.6436e-04  6.8798e-03  2.1695e-04  7.3736e-05  3.2660e-05  0:00:57 1507
   494  2.2005e-04  5.4113e-04  4.5758e-04  6.7888e-03  2.1454e-04  7.2136e-05  3.2060e-05  0:00:45 1506
   495  2.1768e-04  5.3474e-04  4.5089e-04  6.6962e-03  2.1224e-04  7.0636e-05  3.1468e-05  0:00:36 1505

  iter  continuity  x-velocity  y-velocity  z-velocity      energy           k       omega     time/iter
   496  2.1543e-04  5.2829e-04  4.4431e-04  6.6028e-03  2.1006e-04  6.9252e-05  3.0881e-05  0:05:30 1504
   497  2.1328e-04  5.2180e-04  4.3786e-04  6.5078e-03  2.0797e-04  6.7903e-05  3.0298e-05  0:04:24 1503
   498  2.1122e-04  5.1531e-04  4.3153e-04  6.4113e-03  2.0598e-04  6.6578e-05  2.9722e-05  0:03:31 1502
   499  2.0926e-04  5.0882e-04  4.2536e-04  6.3133e-03  2.0408e-04  6.5283e-05  2.9145e-05  0:02:48 1501
   500  2.0737e-04  5.0237e-04  4.1933e-04  6.2137e-03  2.0225e-04  6.4014e-05  2.8594e-05  0:02:15 1500
   501  2.0553e-04  4.9596e-04  4.1346e-04  6.1120e-03  2.0047e-04  6.2814e-05  2.8069e-05  0:01:48 1499
   502  2.0379e-04  4.8961e-04  4.0777e-04  6.0082e-03  1.9879e-04  6.1740e-05  2.7563e-05  0:01:26 1498
   503  2.0212e-04  4.8336e-04  4.0225e-04  5.8971e-03  1.9718e-04  6.0723e-05  2.7067e-05  0:01:09 1497
   504  2.0050e-04  4.7721e-04  3.9691e-04  5.7835e-03  1.9562e-04  5.9748e-05  2.6587e-05  0:00:55 1496
   505  1.9893e-04  4.7119e-04  3.9174e-04  5.6703e-03  1.9410e-04  5.8826e-05  2.6116e-05  0:00:44 1495
   506  1.9740e-04  4.6529e-04  3.8675e-04  5.5550e-03  1.9262e-04  5.7939e-05  2.5653e-05  0:05:34 1494

  iter  continuity  x-velocity  y-velocity  z-velocity      energy           k       omega     time/iter
   507  1.9590e-04  4.5954e-04  3.8194e-04  5.4380e-03  1.9118e-04  5.7135e-05  2.5205e-05  0:04:27 1493
   508  1.9443e-04  4.5393e-04  3.7731e-04  5.3195e-03  1.8976e-04  5.6404e-05  2.4749e-05  0:03:33 1492
   509  1.9299e-04  4.4848e-04  3.7284e-04  5.1999e-03  1.8837e-04  5.5740e-05  2.4302e-05  0:02:51 1491
   510  1.9157e-04  4.4319e-04  3.6855e-04  5.0793e-03  1.8700e-04  5.5130e-05  2.3866e-05  0:02:16 1490
   511  1.9017e-04  4.3807e-04  3.6442e-04  4.9566e-03  1.8564e-04  5.4548e-05  2.3434e-05  0:01:49 1489
   512  1.8877e-04  4.3311e-04  3.6045e-04  4.8329e-03  1.8429e-04  5.4048e-05  2.3015e-05  0:01:27 1488
   513  1.8738e-04  4.2832e-04  3.5662e-04  4.7321e-03  1.8294e-04  5.3586e-05  2.2606e-05  0:01:10 1487
   514  1.8598e-04  4.2370e-04  3.5294e-04  4.6338e-03  1.8159e-04  5.3152e-05  2.2208e-05  0:00:56 1486
   515  1.8458e-04  4.1925e-04  3.4939e-04  4.5359e-03  1.8023e-04  5.2742e-05  2.1819e-05  0:00:45 1485
   516  1.8316e-04  4.1497e-04  3.4596e-04  4.4372e-03  1.7885e-04  5.2347e-05  2.1445e-05  0:00:36 1484
   517  1.8173e-04  4.1085e-04  3.4265e-04  4.3380e-03  1.7746e-04  5.2001e-05  2.1078e-05  0:05:25 1483

  iter  continuity  x-velocity  y-velocity  z-velocity      energy           k       omega     time/iter
   518  1.8028e-04  4.0689e-04  3.3945e-04  4.2377e-03  1.7605e-04  5.1680e-05  2.0717e-05  0:04:20 1482
   519  1.7880e-04  4.0308e-04  3.3635e-04  4.1368e-03  1.7462e-04  5.1367e-05  2.0366e-05  0:03:28 1481
   520  1.7730e-04  3.9943e-04  3.3335e-04  4.0370e-03  1.7315e-04  5.1054e-05  2.0021e-05  0:02:46 1480
   521  1.7577e-04  3.9592e-04  3.3043e-04  3.9391e-03  1.7166e-04  5.0777e-05  1.9689e-05  0:02:13 1479
   522  1.7421e-04  3.9256e-04  3.2758e-04  3.8443e-03  1.7014e-04  5.0498e-05  1.9368e-05  0:01:46 1478
   523  1.7262e-04  3.8933e-04  3.2481e-04  3.7529e-03  1.6858e-04  5.0218e-05  1.9054e-05  0:01:25 1477
   524  1.7098e-04  3.8622e-04  3.2208e-04  3.6654e-03  1.6698e-04  4.9937e-05  1.8742e-05  0:01:08 1476
   525  1.6932e-04  3.8324e-04  3.1941e-04  3.5821e-03  1.6535e-04  4.9669e-05  1.8449e-05  0:00:54 1475
   526  1.6761e-04  3.8038e-04  3.1678e-04  3.5031e-03  1.6368e-04  4.9424e-05  1.8163e-05  0:00:43 1474
   527  1.6587e-04  3.7762e-04  3.1418e-04  3.4283e-03  1.6197e-04  4.9184e-05  1.7881e-05  0:05:29 1473
   528  1.6409e-04  3.7497e-04  3.1160e-04  3.3572e-03  1.6023e-04  4.8968e-05  1.7651e-05  0:04:23 1472

  iter  continuity  x-velocity  y-velocity  z-velocity      energy           k       omega     time/iter
   529  1.6227e-04  3.7241e-04  3.0904e-04  3.2899e-03  1.5844e-04  4.8753e-05  1.7422e-05  0:03:30 1471
   530  1.6041e-04  3.6993e-04  3.0649e-04  3.2259e-03  1.5662e-04  4.8530e-05  1.7196e-05  0:02:48 1470
   531  1.5852e-04  3.6754e-04  3.0395e-04  3.1661e-03  1.5477e-04  4.8299e-05  1.6970e-05  0:02:15 1469
   532  1.5660e-04  3.6522e-04  3.0140e-04  3.1088e-03  1.5287e-04  4.8066e-05  1.6759e-05  0:01:48 1468
   533  1.5464e-04  3.6297e-04  2.9884e-04  3.0531e-03  1.5095e-04  4.7833e-05  1.6551e-05  0:01:26 1467
   534  1.5265e-04  3.6078e-04  2.9626e-04  2.9987e-03  1.4900e-04  4.7602e-05  1.6348e-05  0:01:09 1466
   535  1.5064e-04  3.5864e-04  2.9367e-04  2.9457e-03  1.4701e-04  4.7376e-05  1.6145e-05  0:00:55 1465
   536  1.4859e-04  3.5655e-04  2.9106e-04  2.8923e-03  1.4501e-04  4.7148e-05  1.5952e-05  0:00:44 1464
   537  1.4653e-04  3.5450e-04  2.8842e-04  4.2054e-03  1.4297e-04  4.6917e-05  1.5761e-05  0:00:35 1463
   538  1.4444e-04  3.5249e-04  2.8575e-04  5.0984e-03  1.4092e-04  4.6685e-05  1.5561e-05  0:05:20 1462
   539  1.4234e-04  3.5050e-04  2.8305e-04  5.2434e-03  1.3885e-04  4.6451e-05  1.5364e-05  0:04:16 1461

  iter  continuity  x-velocity  y-velocity  z-velocity      energy           k       omega     time/iter
   540  1.4022e-04  3.4853e-04  2.8031e-04  5.0764e-03  1.3677e-04  4.6228e-05  1.5177e-05  0:03:25 1460
   541  1.3809e-04  3.4657e-04  2.7754e-04  4.8276e-03  1.3468e-04  4.6002e-05  1.4994e-05  0:02:44 1459
   542  1.3595e-04  3.4462e-04  2.7473e-04  4.5816e-03  1.3258e-04  4.5792e-05  1.4805e-05  0:02:11 1458
   543  1.3381e-04  3.4268e-04  2.7189e-04  4.3611e-03  1.3047e-04  4.5586e-05  1.4607e-05  0:01:45 1457
   544  1.3167e-04  3.4074e-04  2.6900e-04  4.1649e-03  1.2836e-04  4.5373e-05  1.4410e-05  0:01:24 1456
   545  1.2953e-04  3.3880e-04  2.6608e-04  3.9848e-03  1.2626e-04  4.5162e-05  1.4213e-05  0:01:07 1455
   546  1.2741e-04  3.3684e-04  2.6312e-04  3.8152e-03  1.2417e-04  4.4933e-05  1.4014e-05  0:00:53 1454
   547  1.2530e-04  3.3486e-04  2.6012e-04  3.6522e-03  1.2210e-04  4.4691e-05  1.3812e-05  0:00:43 1453
   548  1.2321e-04  3.3286e-04  2.5709e-04  3.4939e-03  1.2005e-04  4.4450e-05  1.3614e-05  0:05:25 1452
   549  1.2115e-04  3.3083e-04  2.5402e-04  3.3412e-03  1.1803e-04  4.4210e-05  1.3429e-05  0:04:19 1451
   550  1.1912e-04  3.2877e-04  2.5092e-04  3.1957e-03  1.1603e-04  4.3978e-05  1.3246e-05  0:03:27 1450

  iter  continuity  x-velocity  y-velocity  z-velocity      energy           k       omega     time/iter
   551  1.1712e-04  3.2667e-04  2.4779e-04  3.0591e-03  1.1407e-04  4.3746e-05  1.3066e-05  0:02:46 1449
   552  1.1515e-04  3.2453e-04  2.4463e-04  2.9326e-03  1.1214e-04  4.3511e-05  1.2888e-05  0:02:13 1448
   553  1.1322e-04  3.2235e-04  2.4145e-04  2.8152e-03  1.1025e-04  4.3274e-05  1.2707e-05  0:01:46 1447
   554  1.1134e-04  3.2012e-04  2.3825e-04  2.7086e-03  1.0840e-04  4.3023e-05  1.2527e-05  0:01:25 1446
   555  1.0950e-04  3.1785e-04  2.3504e-04  2.6140e-03  1.0659e-04  4.2755e-05  1.2356e-05  0:01:08 1445
   556  1.0770e-04  3.1552e-04  2.3181e-04  2.5311e-03  1.0484e-04  4.2492e-05  1.2185e-05  0:00:54 1444
   557  1.0595e-04  3.1316e-04  2.2858e-04  2.4590e-03  1.0312e-04  4.2226e-05  1.2022e-05  0:00:43 1443
   558  1.0425e-04  3.1074e-04  2.2535e-04  2.3972e-03  1.0146e-04  4.1963e-05  1.1863e-05  0:05:23 1442
   559  1.0261e-04  3.0828e-04  2.2213e-04  2.3430e-03  9.9857e-05  4.1690e-05  1.1715e-05  0:04:18 1441
   560  1.0103e-04  3.0578e-04  2.1891e-04  2.2974e-03  9.8307e-05  4.1408e-05  1.1570e-05  0:03:26 1440
   561  9.9499e-05  3.0323e-04  2.1570e-04  2.2599e-03  9.6816e-05  4.1130e-05  1.1429e-05  0:02:45 1439

  iter  continuity  x-velocity  y-velocity  z-velocity      energy           k       omega     time/iter
   562  9.8034e-05  3.0064e-04  2.1251e-04  2.2295e-03  9.5387e-05  4.0840e-05  1.1300e-05  0:02:12 1438
   563  9.6631e-05  2.9801e-04  2.0934e-04  2.2054e-03  9.4019e-05  4.0553e-05  1.1179e-05  0:01:45 1437
   564  9.5291e-05  2.9535e-04  2.0620e-04  2.1869e-03  9.2713e-05  4.0252e-05  1.1058e-05  0:01:24 1436
   565  9.4013e-05  2.9266e-04  2.0309e-04  2.1725e-03  9.1470e-05  3.9950e-05  1.0946e-05  0:01:07 1435
   566  9.2797e-05  2.8995e-04  2.0001e-04  2.1606e-03  9.0288e-05  3.9637e-05  1.0837e-05  0:00:54 1434
   567  9.1642e-05  2.8721e-04  1.9698e-04  2.1496e-03  8.9167e-05  3.9316e-05  1.0729e-05  0:05:30 1433
   568  9.0547e-05  2.8446e-04  1.9399e-04  2.1385e-03  8.8105e-05  3.8996e-05  1.0628e-05  0:04:24 1432
   569  8.9510e-05  2.8170e-04  1.9105e-04  2.1262e-03  8.7100e-05  3.8658e-05  1.0532e-05  0:03:31 1431
   570  8.8530e-05  2.7893e-04  1.8816e-04  2.1121e-03  8.6152e-05  3.8317e-05  1.0446e-05  0:02:48 1430
   571  8.7604e-05  2.7617e-04  1.8533e-04  2.0960e-03  8.5257e-05  3.7968e-05  1.0366e-05  0:02:15 1429
   572  8.6732e-05  2.7343e-04  1.8256e-04  2.0782e-03  8.4416e-05  3.7607e-05  1.0285e-05  0:01:48 1428

  iter  continuity  x-velocity  y-velocity  z-velocity      energy           k       omega     time/iter
   573  8.5911e-05  2.7070e-04  1.7986e-04  2.0585e-03  8.3625e-05  3.7241e-05  1.0207e-05  0:01:26 1427
   574  8.5138e-05  2.6799e-04  1.7723e-04  2.0373e-03  8.2882e-05  3.6878e-05  1.0137e-05  0:01:09 1426
   575  8.4412e-05  2.6532e-04  1.7467e-04  2.0144e-03  8.2184e-05  3.6514e-05  1.0077e-05  0:00:55 1425
   576  8.3728e-05  2.6269e-04  1.7219e-04  1.9899e-03  8.1528e-05  3.6132e-05  1.0030e-05  0:00:44 1424
   577  8.3084e-05  2.6010e-04  1.6978e-04  1.9633e-03  8.0912e-05  3.5740e-05  9.9895e-06  0:05:20 1423
   578  8.2476e-05  2.5755e-04  1.6744e-04  1.9366e-03  8.0331e-05  3.5346e-05  9.9530e-06  0:04:16 1422
   579  8.1901e-05  2.5507e-04  1.6519e-04  1.9080e-03  7.9782e-05  3.4961e-05  9.9227e-06  0:03:24 1421
   580  8.1354e-05  2.5264e-04  1.6301e-04  1.8755e-03  7.9261e-05  3.4573e-05  9.8974e-06  0:02:43 1420
   581  8.0832e-05  2.5028e-04  1.6090e-04  1.8404e-03  7.8765e-05  3.4195e-05  9.8805e-06  0:02:11 1419
   582  8.0331e-05  2.4799e-04  1.5887e-04  1.8035e-03  7.8288e-05  3.3811e-05  9.8739e-06  0:01:44 1418
   583  7.9846e-05  2.4577e-04  1.5692e-04  1.7645e-03  7.7827e-05  3.3415e-05  9.8724e-06  0:01:23 1417

  iter  continuity  x-velocity  y-velocity  z-velocity      energy           k       omega     time/iter
   584  7.9373e-05  2.4363e-04  1.5504e-04  1.7236e-03  7.7377e-05  3.3017e-05  9.8764e-06  0:01:07 1416
   585  7.8907e-05  2.4156e-04  1.5323e-04  1.6811e-03  7.6934e-05  3.2611e-05  9.8836e-06  0:00:53 1415
   586  7.8444e-05  2.3958e-04  1.5150e-04  1.6371e-03  7.6494e-05  3.2212e-05  9.8917e-06  0:00:43 1414
   587  7.7980e-05  2.3767e-04  1.4983e-04  1.5921e-03  7.6052e-05  3.1823e-05  9.9021e-06  0:00:34 1413
   588  7.7511e-05  2.3584e-04  1.4823e-04  1.5464e-03  7.5604e-05  3.1455e-05  9.9150e-06  0:05:10 1412
   589  7.7033e-05  2.3409e-04  1.4669e-04  1.5008e-03  7.5147e-05  3.1095e-05  9.9322e-06  0:04:08 1411
   590  7.6542e-05  2.3243e-04  1.4521e-04  1.4557e-03  7.4676e-05  3.0742e-05  9.9599e-06  0:03:18 1410
   591  7.6034e-05  2.3084e-04  1.4379e-04  1.4118e-03  7.4189e-05  3.0405e-05  9.9945e-06  0:02:38 1409
   592  7.5507e-05  2.2933e-04  1.4241e-04  1.3690e-03  7.3681e-05  3.0073e-05  1.0031e-05  0:02:06 1408
   593  7.4957e-05  2.2789e-04  1.4109e-04  1.3278e-03  7.3151e-05  2.9750e-05  1.0070e-05  0:01:41 1407
   594  7.4382e-05  2.2653e-04  1.3981e-04  1.2892e-03  7.2594e-05  2.9442e-05  1.0111e-05  0:01:21 1406

  iter  continuity  x-velocity  y-velocity  z-velocity      energy           k       omega     time/iter
   595  7.3779e-05  2.2524e-04  1.3858e-04  1.2534e-03  7.2010e-05  2.9139e-05  1.0152e-05  0:01:05 1405
   596  7.3147e-05  2.2401e-04  1.3737e-04  1.2205e-03  7.1397e-05  2.8843e-05  1.0196e-05  0:00:52 1404
   597  7.2484e-05  2.2285e-04  1.3620e-04  1.1906e-03  7.0752e-05  2.8547e-05  1.0237e-05  0:00:41 1403
   598  7.1790e-05  2.2174e-04  1.3506e-04  1.1635e-03  7.0076e-05  2.8255e-05  1.0271e-05  0:00:33 1402
   599  7.1062e-05  2.2069e-04  1.3393e-04  1.1393e-03  6.9366e-05  2.7987e-05  1.0310e-05  0:05:07 1401
   600  7.0302e-05  2.1970e-04  1.3283e-04  1.1179e-03  6.8624e-05  2.7744e-05  1.0356e-05  0:04:05 1400
   601  6.9510e-05  2.1875e-04  1.3174e-04  1.0989e-03  6.7849e-05  2.7536e-05  1.0402e-05  0:03:16 1399
   602  6.8686e-05  2.1784e-04  1.3065e-04  1.0826e-03  6.7042e-05  2.7328e-05  1.0446e-05  0:02:37 1398
   603  6.7832e-05  2.1698e-04  1.2958e-04  1.0687e-03  6.6206e-05  2.7125e-05  1.0491e-05  0:02:05 1397
   604  6.6949e-05  2.1614e-04  1.2850e-04  1.0571e-03  6.5341e-05  2.6936e-05  1.0537e-05  0:01:40 1396
   605  6.6039e-05  2.1533e-04  1.2742e-04  1.0474e-03  6.4449e-05  2.6765e-05  1.0583e-05  0:01:20 1395

  iter  continuity  x-velocity  y-velocity  z-velocity      energy           k       omega     time/iter
   606  6.5105e-05  2.1455e-04  1.2633e-04  1.0395e-03  6.3532e-05  2.6611e-05  1.0627e-05  0:01:04 1394
   607  6.4148e-05  2.1378e-04  1.2523e-04  1.0333e-03  6.2592e-05  2.6457e-05  1.0672e-05  0:00:51 1393
   608  6.3171e-05  2.1303e-04  1.2412e-04  1.0284e-03  6.1634e-05  2.6302e-05  1.0716e-05  0:00:41 1392
   609  6.2179e-05  2.1229e-04  1.2300e-04  1.0243e-03  6.0659e-05  2.6168e-05  1.0760e-05  0:05:11 1391
   610  6.1173e-05  2.1154e-04  1.2185e-04  1.0208e-03  5.9672e-05  2.6044e-05  1.0802e-05  0:04:09 1390
   611  6.0159e-05  2.1080e-04  1.2069e-04  1.0176e-03  5.8676e-05  2.5921e-05  1.0842e-05  0:03:19 1389
   612  5.9140e-05  2.1005e-04  1.1950e-04  1.0147e-03  5.7674e-05  2.5796e-05  1.0882e-05  0:02:39 1388
   613  5.8119e-05  2.0929e-04  1.1830e-04  1.0113e-03  5.6672e-05  2.5669e-05  1.0922e-05  0:02:07 1387
   614  5.7102e-05  2.0851e-04  1.1706e-04  1.0076e-03  5.5673e-05  2.5560e-05  1.0963e-05  0:01:42 1386
   615  5.6091e-05  2.0772e-04  1.1581e-04  1.0032e-03  5.4681e-05  2.5464e-05  1.1006e-05  0:01:21 1385
   616  5.5090e-05  2.0690e-04  1.1452e-04  9.9827e-04  5.3699e-05  2.5371e-05  1.1047e-05  0:01:05 1384

  iter  continuity  x-velocity  y-velocity  z-velocity      energy           k       omega     time/iter
   617  5.4105e-05  2.0605e-04  1.1322e-04  9.9476e-04  5.2732e-05  2.5276e-05  1.1091e-05  0:00:52 1383
   618  5.3137e-05  2.0517e-04  1.1188e-04  9.9007e-04  5.1784e-05  2.5197e-05  1.1138e-05  0:00:41 1382
   619  5.2192e-05  2.0426e-04  1.1053e-04  9.8282e-04  5.0857e-05  2.5134e-05  1.1183e-05  0:00:33 1381
   620  5.1271e-05  2.0332e-04  1.0915e-04  9.7458e-04  4.9955e-05  2.5071e-05  1.1227e-05  0:00:26 1380
   621  5.0378e-05  2.0233e-04  1.0775e-04  9.6576e-04  4.9082e-05  2.5010e-05  1.1269e-05  0:04:57 1379
   622  4.9517e-05  2.0131e-04  1.0633e-04  9.5618e-04  4.8239e-05  2.4958e-05  1.1310e-05  0:03:57 1378
   623  4.8688e-05  2.0025e-04  1.0490e-04  9.4565e-04  4.7430e-05  2.4914e-05  1.1350e-05  0:03:10 1377
   624  4.7895e-05  1.9915e-04  1.0344e-04  9.3429e-04  4.6656e-05  2.4877e-05  1.1388e-05  0:02:32 1376
[...]
  1838  6.7364e-08  1.6945e-07  1.2388e-07  1.8081e-05  6.5825e-08  2.9337e-08  1.2677e-08  0:00:33  162
  1839  6.6969e-08  1.6847e-07  1.2314e-07  1.8022e-05  6.5439e-08  2.9187e-08  1.2610e-08  0:00:26  161
  1840  6.6577e-08  1.6749e-07  1.2240e-07  1.7964e-05  6.5056e-08  2.9038e-08  1.2544e-08  0:00:21  160
  1841  6.6188e-08  1.6652e-07  1.2167e-07  1.7906e-05  6.4676e-08  2.8890e-08  1.2477e-08  0:00:16  159
  1842  6.5801e-08  1.6556e-07  1.2095e-07  1.7847e-05  6.4298e-08  2.8743e-08  1.2411e-08  0:00:13  158
  1843  6.5417e-08  1.6460e-07  1.2023e-07  1.7790e-05  6.3923e-08  2.8597e-08  1.2346e-08  0:00:10  157
  1844  6.5035e-08  1.6365e-07  1.1951e-07  1.7732e-05  6.3551e-08  2.8451e-08  1.2281e-08  0:00:39  156
  1845  6.4656e-08  1.6271e-07  1.1880e-07  1.7674e-05  6.3180e-08  2.8307e-08  1.2216e-08  0:00:31  155
  1846  6.4280e-08  1.6177e-07  1.1810e-07  1.7617e-05  6.2813e-08  2.8163e-08  1.2152e-08  0:00:25  154
  1847  6.3906e-08  1.6083e-07  1.1740e-07  1.7559e-05  6.2448e-08  2.8020e-08  1.2088e-08  0:00:20  153
  1848  6.3535e-08  1.5990e-07  1.1670e-07  1.7502e-05  6.2085e-08  2.7878e-08  1.2024e-08  0:00:16  152

  iter  continuity  x-velocity  y-velocity  z-velocity      energy           k       omega     time/iter
  1849  6.3166e-08  1.5898e-07  1.1601e-07  1.7445e-05  6.1725e-08  2.7737e-08  1.1961e-08  0:00:13  151
  1850  6.2799e-08  1.5806e-07  1.1532e-07  1.7388e-05  6.1367e-08  2.7596e-08  1.1898e-08  0:00:10  150
  1851  6.2436e-08  1.5715e-07  1.1464e-07  1.7332e-05  6.1012e-08  2.7456e-08  1.1835e-08  0:00:38  149
  1852  6.2074e-08  1.5625e-07  1.1397e-07  1.7275e-05  6.0659e-08  2.7317e-08  1.1772e-08  0:00:30  148
  1853  6.1715e-08  1.5534e-07  1.1330e-07  1.7219e-05  6.0308e-08  2.7179e-08  1.1710e-08  0:00:24  147
  1854  6.1359e-08  1.5445e-07  1.1263e-07  1.7163e-05  5.9960e-08  2.7042e-08  1.1649e-08  0:00:19  146
  1855  6.1004e-08  1.5356e-07  1.1197e-07  1.7108e-05  5.9614e-08  2.6905e-08  1.1587e-08  0:00:15  145
  1856  6.0653e-08  1.5267e-07  1.1131e-07  1.7052e-05  5.9270e-08  2.6769e-08  1.1526e-08  0:00:12  144
  1857  6.0303e-08  1.5179e-07  1.1065e-07  1.6997e-05  5.8929e-08  2.6634e-08  1.1465e-08  0:00:09  143
  1858  5.9956e-08  1.5092e-07  1.1000e-07  1.6942e-05  5.8590e-08  2.6499e-08  1.1405e-08  0:00:36  142
  1859  5.9611e-08  1.5005e-07  1.0936e-07  1.6887e-05  5.8253e-08  2.6366e-08  1.1345e-08  0:00:29  141

  iter  continuity  x-velocity  y-velocity  z-velocity      energy           k       omega     time/iter
  1860  5.9269e-08  1.4918e-07  1.0872e-07  1.6833e-05  5.7919e-08  2.6233e-08  1.1285e-08  0:00:23  140
  1861  5.8929e-08  1.4833e-07  1.0808e-07  1.6778e-05  5.7587e-08  2.6100e-08  1.1225e-08  0:00:18  139
  1862  5.8591e-08  1.4747e-07  1.0745e-07  1.6724e-05  5.7257e-08  2.5968e-08  1.1166e-08  0:00:14  138
  1863  5.8255e-08  1.4662e-07  1.0682e-07  1.6669e-05  5.6929e-08  2.5837e-08  1.1107e-08  0:00:11  137
  1864  5.7921e-08  1.4578e-07  1.0620e-07  1.6615e-05  5.6603e-08  2.5707e-08  1.1049e-08  0:00:36  136
  1865  5.7590e-08  1.4494e-07  1.0558e-07  1.6562e-05  5.6279e-08  2.5577e-08  1.0990e-08  0:00:29  135
  1866  5.7261e-08  1.4410e-07  1.0497e-07  1.6508e-05  5.5958e-08  2.5448e-08  1.0932e-08  0:00:23  134
  1867  5.6934e-08  1.4328e-07  1.0436e-07  1.6454e-05  5.5639e-08  2.5320e-08  1.0875e-08  0:00:18  133
  1868  5.6610e-08  1.4245e-07  1.0375e-07  1.6401e-05  5.5322e-08  2.5192e-08  1.0817e-08  0:00:14  132
  1869  5.6287e-08  1.4163e-07  1.0315e-07  1.6348e-05  5.5006e-08  2.5065e-08  1.0760e-08  0:00:11  131
  1870  5.5966e-08  1.4082e-07  1.0255e-07  1.6295e-05  5.4693e-08  2.4938e-08  1.0703e-08  0:00:09  130

  iter  continuity  x-velocity  y-velocity  z-velocity      energy           k       omega     time/iter
  1871  5.5648e-08  1.4001e-07  1.0196e-07  1.6242e-05  5.4382e-08  2.4812e-08  1.0646e-08  0:00:07  129
  1872  5.5332e-08  1.3920e-07  1.0137e-07  1.6189e-05  5.4074e-08  2.4687e-08  1.0590e-08  0:00:31  128
  1873  5.5017e-08  1.3840e-07  1.0078e-07  1.6137e-05  5.3767e-08  2.4562e-08  1.0534e-08  0:00:25  127
  1874  5.4705e-08  1.3761e-07  1.0020e-07  1.6085e-05  5.3462e-08  2.4438e-08  1.0478e-08  0:00:20  126
  1875  5.4395e-08  1.3682e-07  9.9620e-08  1.6032e-05  5.3159e-08  2.4314e-08  1.0423e-08  0:00:16  125
  1876  5.4087e-08  1.3603e-07  9.9045e-08  1.5980e-05  5.2858e-08  2.4191e-08  1.0368e-08  0:00:12  124
  1877  5.3781e-08  1.3525e-07  9.8475e-08  1.5929e-05  5.2559e-08  2.4068e-08  1.0313e-08  0:00:10  123
  1878  5.3477e-08  1.3447e-07  9.7908e-08  1.5877e-05  5.2262e-08  2.3947e-08  1.0258e-08  0:00:08  122
  1879  5.3175e-08  1.3370e-07  9.7345e-08  1.5825e-05  5.1967e-08  2.3825e-08  1.0203e-08  0:00:06  121
  1880  5.2874e-08  1.3293e-07  9.6786e-08  1.5774e-05  5.1673e-08  2.3705e-08  1.0149e-08  0:00:29  120
  1881  5.2576e-08  1.3217e-07  9.6231e-08  1.5723e-05  5.1382e-08  2.3585e-08  1.0095e-08  0:00:23  119

  iter  continuity  x-velocity  y-velocity  z-velocity      energy           k       omega     time/iter
  1882  5.2280e-08  1.3141e-07  9.5679e-08  1.5672e-05  5.1092e-08  2.3465e-08  1.0042e-08  0:00:18  118
  1883  5.1985e-08  1.3066e-07  9.5131e-08  1.5621e-05  5.0805e-08  2.3346e-08  9.9881e-09  0:00:14  117
  1884  5.1693e-08  1.2991e-07  9.4586e-08  1.5570e-05  5.0519e-08  2.3228e-08  9.9349e-09  0:00:11  116
  1885  5.1402e-08  1.2916e-07  9.4046e-08  1.5520e-05  5.0235e-08  2.3110e-08  9.8819e-09  0:00:09  115
  1886  5.1113e-08  1.2842e-07  9.3508e-08  1.5470e-05  4.9953e-08  2.2992e-08  9.8292e-09  0:00:07  114
  1887  5.0826e-08  1.2769e-07  9.2975e-08  1.5420e-05  4.9672e-08  2.2876e-08  9.7768e-09  0:00:06  113
  1888  5.0541e-08  1.2695e-07  9.2445e-08  1.5370e-05  4.9394e-08  2.2759e-08  9.7246e-09  0:00:27  112
  1889  5.0257e-08  1.2623e-07  9.1918e-08  1.5320e-05  4.9117e-08  2.2643e-08  9.6726e-09  0:00:21  111
  1890  4.9976e-08  1.2550e-07  9.1395e-08  1.5270e-05  4.8842e-08  2.2528e-08  9.6209e-09  0:00:17  110
  1891  4.9696e-08  1.2478e-07  9.0875e-08  1.5220e-05  4.8568e-08  2.2413e-08  9.5694e-09  0:00:13  109
  1892  4.9418e-08  1.2407e-07  9.0359e-08  1.5171e-05  4.8297e-08  2.2299e-08  9.5181e-09  0:00:11  108

  iter  continuity  x-velocity  y-velocity  z-velocity      energy           k       omega     time/iter
  1893  4.9141e-08  1.2336e-07  8.9846e-08  1.5122e-05  4.8027e-08  2.2185e-08  9.4671e-09  0:00:08  107
  1894  4.8867e-08  1.2265e-07  8.9336e-08  1.5073e-05  4.7759e-08  2.2072e-08  9.4163e-09  0:00:07  106
  1895  4.8594e-08  1.2195e-07  8.8830e-08  1.5024e-05  4.7492e-08  2.1959e-08  9.3658e-09  0:00:26  105
  1896  4.8323e-08  1.2125e-07  8.8327e-08  1.4975e-05  4.7227e-08  2.1847e-08  9.3155e-09  0:00:21  104
  1897  4.8053e-08  1.2055e-07  8.7827e-08  1.4927e-05  4.6964e-08  2.1735e-08  9.2654e-09  0:00:17  103
  1898  4.7785e-08  1.1986e-07  8.7330e-08  1.4878e-05  4.6702e-08  2.1623e-08  9.2156e-09  0:00:13  102
  1899  4.7519e-08  1.1918e-07  8.6837e-08  1.4830e-05  4.6442e-08  2.1512e-08  9.1660e-09  0:00:10  101
  1900  4.7254e-08  1.1849e-07  8.6347e-08  1.4782e-05  4.6183e-08  2.1402e-08  9.1166e-09  0:00:08  100
  1901  4.6991e-08  1.1781e-07  8.5860e-08  1.4734e-05  4.5927e-08  2.1292e-08  9.0675e-09  0:00:06   99
  1902  4.6730e-08  1.1714e-07  8.5376e-08  1.4686e-05  4.5671e-08  2.1182e-08  9.0185e-09  0:00:05   98
  1903  4.6470e-08  1.1647e-07  8.4895e-08  1.4639e-05  4.5417e-08  2.1073e-08  8.9698e-09  0:00:23   97

  iter  continuity  x-velocity  y-velocity  z-velocity      energy           k       omega     time/iter
  1904  4.6212e-08  1.1580e-07  8.4418e-08  1.4591e-05  4.5165e-08  2.0964e-08  8.9214e-09  0:00:19   96
  1905  4.5956e-08  1.1514e-07  8.3943e-08  1.4544e-05  4.4915e-08  2.0856e-08  8.8731e-09  0:00:15   95
  1906  4.5700e-08  1.1448e-07  8.3471e-08  1.4497e-05  4.4665e-08  2.0748e-08  8.8251e-09  0:00:12   94
  1907  4.5447e-08  1.1383e-07  8.3003e-08  1.4450e-05  4.4418e-08  2.0640e-08  8.7772e-09  0:00:09   93
  1908  4.5195e-08  1.1318e-07  8.2537e-08  1.4403e-05  4.4171e-08  2.0533e-08  8.7296e-09  0:00:07   92
  1909  4.4944e-08  1.1253e-07  8.2074e-08  1.4356e-05  4.3927e-08  2.0426e-08  8.6822e-09  0:00:06   91
  1910  4.4695e-08  1.1188e-07  8.1615e-08  1.4309e-05  4.3683e-08  2.0320e-08  8.6350e-09  0:00:05   90
  1911  4.4448e-08  1.1124e-07  8.1158e-08  1.4263e-05  4.3442e-08  2.0214e-08  8.5881e-09  0:00:21   89
  1912  4.4202e-08  1.1061e-07  8.0704e-08  1.4217e-05  4.3201e-08  2.0109e-08  8.5413e-09  0:00:17   88
  1913  4.3957e-08  1.0998e-07  8.0253e-08  1.4171e-05  4.2962e-08  2.0004e-08  8.4947e-09  0:00:13   87
  1914  4.3714e-08  1.0935e-07  7.9804e-08  1.4125e-05  4.2725e-08  1.9899e-08  8.4484e-09  0:00:11   86

  iter  continuity  x-velocity  y-velocity  z-velocity      energy           k       omega     time/iter
  1915  4.3472e-08  1.0872e-07  7.9359e-08  1.4079e-05  4.2488e-08  1.9795e-08  8.4023e-09  0:00:08   85
  1916  4.3232e-08  1.0810e-07  7.8916e-08  1.4033e-05  4.2254e-08  1.9692e-08  8.3563e-09  0:00:07   84
  1917  4.2993e-08  1.0748e-07  7.8476e-08  1.3988e-05  4.2020e-08  1.9588e-08  8.3106e-09  0:00:05   83
  1918  4.2756e-08  1.0687e-07  7.8039e-08  1.3942e-05  4.1788e-08  1.9485e-08  8.2651e-09  0:00:04   82
  1919  4.2520e-08  1.0626e-07  7.7604e-08  1.3897e-05  4.1558e-08  1.9383e-08  8.2197e-09  0:00:19   81
  1920  4.2285e-08  1.0565e-07  7.7172e-08  1.3852e-05  4.1328e-08  1.9281e-08  8.1746e-09  0:00:15   80
  1921  4.2052e-08  1.0504e-07  7.6743e-08  1.3807e-05  4.1100e-08  1.9179e-08  8.1297e-09  0:00:12   79
  1922  4.1820e-08  1.0444e-07  7.6316e-08  1.3763e-05  4.0873e-08  1.9077e-08  8.0850e-09  0:00:10   78
  1923  4.1589e-08  1.0385e-07  7.5892e-08  1.3718e-05  4.0648e-08  1.8976e-08  8.0405e-09  0:00:08   77
  1924  4.1360e-08  1.0325e-07  7.5470e-08  1.3673e-05  4.0424e-08  1.8876e-08  7.9962e-09  0:00:06   76
  1925  4.1132e-08  1.0266e-07  7.5051e-08  1.3629e-05  4.0201e-08  1.8776e-08  7.9521e-09  0:00:05   75

  iter  continuity  x-velocity  y-velocity  z-velocity      energy           k       omega     time/iter
  1926  4.0905e-08  1.0208e-07  7.4635e-08  1.3585e-05  3.9980e-08  1.8676e-08  7.9081e-09  0:00:04   74
  1927  4.0680e-08  1.0149e-07  7.4221e-08  1.3541e-05  3.9760e-08  1.8576e-08  7.8644e-09  0:00:18   73
  1928  4.0455e-08  1.0091e-07  7.3810e-08  1.3497e-05  3.9541e-08  1.8477e-08  7.8209e-09  0:00:14   72
  1929  4.0233e-08  1.0034e-07  7.3401e-08  1.3453e-05  3.9323e-08  1.8378e-08  7.7775e-09  0:00:11   71
  1930  4.0011e-08  9.9764e-08  7.2994e-08  1.3410e-05  3.9106e-08  1.8280e-08  7.7344e-09  0:00:09   70
  1931  3.9791e-08  9.9194e-08  7.2590e-08  1.3366e-05  3.8891e-08  1.8182e-08  7.6915e-09  0:00:07   69
  1932  3.9572e-08  9.8628e-08  7.2189e-08  1.3323e-05  3.8677e-08  1.8085e-08  7.6487e-09  0:00:05   68
  1933  3.9354e-08  9.8064e-08  7.1789e-08  1.3280e-05  3.8464e-08  1.7987e-08  7.6061e-09  0:00:04   67
  1934  3.9138e-08  9.7504e-08  7.1392e-08  1.3237e-05  3.8253e-08  1.7891e-08  7.5638e-09  0:00:17   66
  1935  3.8922e-08  9.6947e-08  7.0998e-08  1.3194e-05  3.8042e-08  1.7794e-08  7.5216e-09  0:00:13   65
  1936  3.8708e-08  9.6393e-08  7.0606e-08  1.3151e-05  3.7833e-08  1.7698e-08  7.4796e-09  0:00:10   64

  iter  continuity  x-velocity  y-velocity  z-velocity      energy           k       omega     time/iter
  1937  3.8496e-08  9.5842e-08  7.0216e-08  1.3108e-05  3.7625e-08  1.7602e-08  7.4378e-09  0:00:08   63
  1938  3.8284e-08  9.5295e-08  6.9828e-08  1.3066e-05  3.7418e-08  1.7507e-08  7.3962e-09  0:00:06   62
  1939  3.8073e-08  9.4750e-08  6.9443e-08  1.3023e-05  3.7213e-08  1.7412e-08  7.3548e-09  0:00:05   61
  1940  3.7864e-08  9.4209e-08  6.9060e-08  1.2981e-05  3.7008e-08  1.7317e-08  7.3135e-09  0:00:04   60
  1941  3.7656e-08  9.3671e-08  6.8679e-08  1.2939e-05  3.6805e-08  1.7223e-08  7.2725e-09  0:00:03   59
  1942  3.7449e-08  9.3135e-08  6.8300e-08  1.2897e-05  3.6603e-08  1.7129e-08  7.2316e-09  0:00:14   58
  1943  3.7243e-08  9.2603e-08  6.7924e-08  1.2855e-05  3.6401e-08  1.7036e-08  7.1909e-09  0:00:11   57
  1944  3.7039e-08  9.2074e-08  6.7550e-08  1.2813e-05  3.6201e-08  1.6942e-08  7.1504e-09  0:00:09   56
  1945  3.6835e-08  9.1548e-08  6.7178e-08  1.2772e-05  3.6003e-08  1.6850e-08  7.1101e-09  0:00:07   55
  1946  3.6633e-08  9.1025e-08  6.6808e-08  1.2730e-05  3.5805e-08  1.6757e-08  7.0700e-09  0:00:05   54
  1947  3.6431e-08  9.0505e-08  6.6440e-08  1.2689e-05  3.5608e-08  1.6665e-08  7.0301e-09  0:00:04   53

  iter  continuity  x-velocity  y-velocity  z-velocity      energy           k       omega     time/iter
  1948  3.6231e-08  8.9988e-08  6.6074e-08  1.2648e-05  3.5412e-08  1.6573e-08  6.9903e-09  0:00:03   52
  1949  3.6032e-08  8.9474e-08  6.5711e-08  1.2607e-05  3.5218e-08  1.6482e-08  6.9507e-09  0:00:03   51
  1950  3.5834e-08  8.8963e-08  6.5349e-08  1.2566e-05  3.5024e-08  1.6391e-08  6.9114e-09  0:00:12   50
  1951  3.5637e-08  8.8454e-08  6.4990e-08  1.2525e-05  3.4832e-08  1.6300e-08  6.8722e-09  0:00:09   49
  1952  3.5441e-08  8.7949e-08  6.4632e-08  1.2485e-05  3.4640e-08  1.6210e-08  6.8332e-09  0:00:07   48
  1953  3.5246e-08  8.7446e-08  6.4277e-08  1.2444e-05  3.4450e-08  1.6120e-08  6.7943e-09  0:00:06   47
  1954  3.5053e-08  8.6947e-08  6.3924e-08  1.2404e-05  3.4261e-08  1.6030e-08  6.7557e-09  0:00:05   46
  1955  3.4860e-08  8.6450e-08  6.3572e-08  1.2364e-05  3.4072e-08  1.5941e-08  6.7172e-09  0:00:04   45
  1956  3.4668e-08  8.5956e-08  6.3223e-08  1.2323e-05  3.3885e-08  1.5852e-08  6.6789e-09  0:00:03   44
  1957  3.4478e-08  8.5465e-08  6.2876e-08  1.2283e-05  3.3698e-08  1.5764e-08  6.6408e-09  0:00:11   43
  1958  3.4288e-08  8.4976e-08  6.2530e-08  1.2244e-05  3.3513e-08  1.5676e-08  6.6029e-09  0:00:08   42

  iter  continuity  x-velocity  y-velocity  z-velocity      energy           k       omega     time/iter
  1959  3.4099e-08  8.4491e-08  6.2187e-08  1.2204e-05  3.3329e-08  1.5588e-08  6.5651e-09  0:00:07   41
  1960  3.3912e-08  8.4008e-08  6.1845e-08  1.2164e-05  3.3145e-08  1.5500e-08  6.5275e-09  0:00:05   40
  1961  3.3725e-08  8.3528e-08  6.1505e-08  1.2125e-05  3.2963e-08  1.5413e-08  6.4901e-09  0:00:04   39
  1962  3.3539e-08  8.3050e-08  6.1167e-08  1.2086e-05  3.2782e-08  1.5326e-08  6.4529e-09  0:00:03   38
  1963  3.3355e-08  8.2576e-08  6.0831e-08  1.2046e-05  3.2601e-08  1.5240e-08  6.4158e-09  0:00:02   37
  1964  3.3171e-08  8.2104e-08  6.0497e-08  1.2007e-05  3.2421e-08  1.5154e-08  6.3789e-09  0:00:02   36
  1965  3.2988e-08  8.1634e-08  6.0165e-08  1.1968e-05  3.2243e-08  1.5068e-08  6.3422e-09  0:00:08   35
  1966  3.2807e-08  8.1168e-08  5.9835e-08  1.1930e-05  3.2065e-08  1.4983e-08  6.3057e-09  0:00:07   34
  1967  3.2626e-08  8.0704e-08  5.9506e-08  1.1891e-05  3.1888e-08  1.4898e-08  6.2693e-09  0:00:05   33
  1968  3.2446e-08  8.0243e-08  5.9179e-08  1.1852e-05  3.1713e-08  1.4813e-08  6.2332e-09  0:00:04   32
  1969  3.2267e-08  7.9784e-08  5.8854e-08  1.1814e-05  3.1538e-08  1.4729e-08  6.1971e-09  0:00:03   31

  iter  continuity  x-velocity  y-velocity  z-velocity      energy           k       omega     time/iter
  1970  3.2089e-08  7.9328e-08  5.8531e-08  1.1776e-05  3.1364e-08  1.4645e-08  6.1613e-09  0:00:02   30
  1971  3.1912e-08  7.8874e-08  5.8209e-08  1.1738e-05  3.1191e-08  1.4561e-08  6.1256e-09  0:00:02   29
  1972  3.1736e-08  7.8423e-08  5.7890e-08  1.1700e-05  3.1019e-08  1.4478e-08  6.0902e-09  0:00:07   28
  1973  3.1561e-08  7.7975e-08  5.7572e-08  1.1662e-05  3.0847e-08  1.4395e-08  6.0548e-09  0:00:05   27
  1974  3.1386e-08  7.7529e-08  5.7255e-08  1.1624e-05  3.0677e-08  1.4312e-08  6.0197e-09  0:00:04   26
  1975  3.1213e-08  7.7086e-08  5.6941e-08  1.1586e-05  3.0508e-08  1.4230e-08  5.9847e-09  0:00:03   25
  1976  3.1041e-08  7.6645e-08  5.6628e-08  1.1549e-05  3.0339e-08  1.4148e-08  5.9499e-09  0:00:02   24
  1977  3.0869e-08  7.6207e-08  5.6316e-08  1.1511e-05  3.0171e-08  1.4067e-08  5.9153e-09  0:00:02   23
  1978  3.0698e-08  7.5771e-08  5.6007e-08  1.1474e-05  3.0004e-08  1.3985e-08  5.8808e-09  0:00:01   22
  1979  3.0528e-08  7.5337e-08  5.5699e-08  1.1437e-05  2.9838e-08  1.3905e-08  5.8465e-09  0:00:05   21
  1980  3.0360e-08  7.4906e-08  5.5393e-08  1.1400e-05  2.9673e-08  1.3824e-08  5.8124e-09  0:00:04   20

  iter  continuity  x-velocity  y-velocity  z-velocity      energy           k       omega     time/iter
  1981  3.0191e-08  7.4478e-08  5.5088e-08  1.1363e-05  2.9509e-08  1.3744e-08  5.7784e-09  0:00:03   19
  1982  3.0024e-08  7.4052e-08  5.4785e-08  1.1326e-05  2.9345e-08  1.3664e-08  5.7446e-09  0:00:02   18
  1983  2.9858e-08  7.3628e-08  5.4483e-08  1.1289e-05  2.9183e-08  1.3585e-08  5.7110e-09  0:00:02   17
  1984  2.9692e-08  7.3207e-08  5.4183e-08  1.1252e-05  2.9021e-08  1.3506e-08  5.6776e-09  0:00:01   16
  1985  2.9528e-08  7.2788e-08  5.3885e-08  1.1216e-05  2.8860e-08  1.3427e-08  5.6443e-09  0:00:01   15
  1986  2.9364e-08  7.2371e-08  5.3588e-08  1.1180e-05  2.8700e-08  1.3349e-08  5.6112e-09  0:00:01   14
  1987  2.9201e-08  7.1957e-08  5.3293e-08  1.1143e-05  2.8541e-08  1.3271e-08  5.5782e-09  0:00:03   13
  1988  2.9039e-08  7.1545e-08  5.3000e-08  1.1107e-05  2.8382e-08  1.3193e-08  5.5454e-09  0:00:02   12
  1989  2.8878e-08  7.1135e-08  5.2708e-08  1.1071e-05  2.8225e-08  1.3116e-08  5.5128e-09  0:00:02   11
  1990  2.8717e-08  7.0728e-08  5.2417e-08  1.1035e-05  2.8068e-08  1.3039e-08  5.4803e-09  0:00:01   10
  1991  2.8558e-08  7.0323e-08  5.2128e-08  1.0999e-05  2.7912e-08  1.2962e-08  5.4480e-09  0:00:01    9

  iter  continuity  x-velocity  y-velocity  z-velocity      energy           k       omega     time/iter
  1992  2.8399e-08  6.9921e-08  5.1841e-08  1.0964e-05  2.7757e-08  1.2886e-08  5.4159e-09  0:00:01    8
  1993  2.8241e-08  6.9520e-08  5.1555e-08  1.0928e-05  2.7602e-08  1.2810e-08  5.3839e-09  0:00:00    7
  1994  2.8084e-08  6.9122e-08  5.1270e-08  1.0893e-05  2.7448e-08  1.2735e-08  5.3521e-09  0:00:00    6
  1995  2.7927e-08  6.8726e-08  5.0987e-08  1.0857e-05  2.7295e-08  1.2660e-08  5.3205e-09  0:00:01    5
  1996  2.7772e-08  6.8332e-08  5.0705e-08  1.0822e-05  2.7143e-08  1.2585e-08  5.2890e-09  0:00:01    4
  1997  2.7617e-08  6.7941e-08  5.0425e-08  1.0787e-05  2.6992e-08  1.2510e-08  5.2577e-09  0:00:00    3
  1998  2.7463e-08  6.7552e-08  5.0147e-08  1.0753e-05  2.6841e-08  1.2436e-08  5.2266e-09  0:00:00    2
  1999  2.7310e-08  6.7164e-08  4.9869e-08  1.0718e-05  2.6692e-08  1.2362e-08  5.1956e-09  0:00:00    1
  2000  2.7157e-08  6.6780e-08  4.9594e-08  1.0684e-05  2.6543e-08  1.2289e-08  5.1648e-09  0:00:00    0

> 
adjoint/                parallel/               server/
define/                 parametric-study/       solve/
display/                plot/                   surface/
exit                    preferences/            turbo-workflow/
file/                   print-license-usage     views/
mesh/                   report/

> /file/write-case-data project1
Fast-loading "C:\PROGRA~1\ANSYSI~1\v231\fluent\fluent23.1.0\\addons\afd\lib\hdfio.bin"
Done.

Writing to Engs-30669:"C:\Users\kebl7595\Desktop\CFD\Runs\Viscous\normal\project1.cas.h5" in NODE0 mode and compression level 1 ...
       12996 cells,     1 zone  ...
       43722 faces,     8 zones ...
       17864 nodes,     1 zone  ...
  Done.
Done.

Writing to Engs-30669:"C:\Users\kebl7595\Desktop\CFD\Runs\Viscous\normal\project1.dat.h5" in NODE0 mode and compression level 1 ...
  Writing results.
Done.

> /file/export/ascii "./surface.dat" wing te () no pressure mach-number quit no

Writing "./surface.dat"...

Writing information to ascii file ...
Done.


> /plot/plot y "pressuredata.dat" no n n pressure-coefficient no n x-coordinate wing ()

> /plot/plot y "frictiondata.dat" no n n skin-friction-coef no n x-coordinate wing ()

> /exit

Posting ANSYS Product Improvement Program performance data 
Done.
Auto-Transcript Stop Time:  10:19:42, 21 May 2024 GMT Daylight Time 
Total Transcript Time: 3 Minute 31 Second.
