Auto-Transcript Start Time:  14:48:24, 21 May 2024 GMT Daylight Time 
Current Directory: "C:\Users\kebl7595\Desktop\CFD\Runs\Viscous\Mach 0.3\finer mesh"

              Welcome to ANSYS Fluent 2023 R1

              Copyright 1987-2023 ANSYS, Inc. All Rights Reserved.
              Unauthorized use, distribution or duplication is prohibited.
              This product is subject to U.S. laws governing export and re-export.
              For full Legal Notice, see documentation.

Build Time: Nov 28 2022 09:52:02 EST  Build Id: 10208  
 
Connected License Server List:	1055@ansyslic.eng.ox.ac.uk

*********************************************
Info: Your license enables 4-way parallel execution.
For faster simulations, please start the application with the appropriate parallel options.
*********************************************


     --------------------------------------------------------------
     This is an academic version of ANSYS FLUENT. Usage of this product
     license is limited to the terms and conditions specified in your ANSYS
     license form, additional terms section.
     --------------------------------------------------------------
Host spawning Node 0 on machine "Engs-30669" (win64).

------------------------------------------------------------------------------------
ID    Hostname    Core  O.S.         PID    Vendor                                 
------------------------------------------------------------------------------------
n0    Engs-30669  1/32  Windows-x64  47692  13th Gen Intel(R) Core(TM) i9-13900    
host  Engs-30669        Windows-x64  30432  13th Gen Intel(R) Core(TM) i9-13900    

MPI Option Selected: intel
------------------------------------------------------------------------------------

Cleanup script file is C:\\Users\\kebl7595\\Desktop\\CFD\\Runs\\Viscous\\Mach 0.3\\finer mesh\\cleanup-fluent-Engs-30669-30432.bat
QA Service Message :
QA Services Agreement Enabled. This application is included in the scope of an ANSYS QA Services Agreement.
Posting ANSYS Product Improvement Program startup data
Done.

Reading journal file C:/Users/kebl7595/Desktop/CFD/Runs/Viscous/Mach 0.3/finer mesh/project1.jou...

> /file/set-batch-options no no no 

> 
define/                 parametric-study/       solve/
display/                plot/                   surface/
exit                    preferences/            switch-to-meshing-mode
file/                   print-license-usage     turbo-workflow/
mesh/                   report/                 views/
parallel/               server/

> /file/import/cgns/mesh  "./project1.cgns"
Engs-30669 has other FLUENT parallel processes running.                       Process affinity not being set.

Importing "./project1.cgns"

Opening library "C:\\PROGRA~1\\ANSYSI~1\\v231\\fluent\\fluent23.1.0\\vki\\win64\\devtools4.4.6.dll"... done.

Read    23384 nodes
   17100 hexahedral cells, zone  1
   12270 quadrilateral wall faces, zone  2.
   44808 quadrilateral interior faces, zone  3.
     354 quadrilateral interface faces, zone  4.
       6 quadrilateral wall faces, zone  5.

Building...
     mesh
     materials,
     interface,
     domains,
     zones,
	default_exterior-1
	interface-default_subface
	default_interior-1
	default_subface
	default
     parallel,
The automatic selection for flux type has changed to Rhie-Chow: momentum based.

Done.


> 
adjoint/                parallel/               server/
define/                 parametric-study/       solve/
display/                plot/                   surface/
exit                    preferences/            turbo-workflow/
file/                   print-license-usage     views/
mesh/                   report/

> /define/models/solver/density-based-implicit yes

> 
adjoint/                parallel/               server/
define/                 parametric-study/       solve/
display/                plot/                   surface/
exit                    preferences/            turbo-workflow/
file/                   print-license-usage     views/
mesh/                   report/

> /define/models/energy? yes yes invalid command [yes]
yes

> /define/models/viscous/kw-standard? yes

> 
adjoint/                parallel/               server/
define/                 parametric-study/       solve/
display/                plot/                   surface/
exit                    preferences/            turbo-workflow/
file/                   print-license-usage     views/
mesh/                   report/

> /define/materials/change-create air air air is a fluid
yes 
Density
ideal-gas no data required.

no no no no no no

> 
adjoint/                parallel/               server/
define/                 parametric-study/       solve/
display/                plot/                   surface/
exit                    preferences/            turbo-workflow/
file/                   print-license-usage     views/
mesh/                   report/

> /mesh/modify-zones/sep-face-zone-angle 2 90 yes

 5700 faces in contiguous region 0
 228 faces in contiguous region 1
 342 faces in contiguous region 2
 5700 faces in contiguous region 3
 300 faces in contiguous region 4
 Separates zone 2 into 5 zone(s).
Updating new zone information...
   created new zone default_subface:010 from default_subface
   created new zone default_subface:009 from default_subface
   created new zone default_subface:008 from default_subface
   created new zone default_subface:007 from default_subface
done.

> 
adjoint/                parallel/               server/
define/                 parametric-study/       solve/
display/                plot/                   surface/
exit                    preferences/            turbo-workflow/
file/                   print-license-usage     views/
mesh/                   report/

> /define/boundary-conditions/zone-name  5   te

> /define/boundary-conditions/zone-name  7 wing

> /define/boundary-conditions/zone-name  2 sym1

> /define/boundary-conditions/zone-name  9 sym2

> 
adjoint/                parallel/               server/
define/                 parametric-study/       solve/
display/                plot/                   surface/
exit                    preferences/            turbo-workflow/
file/                   print-license-usage     views/
mesh/                   report/

> /define/boundary-conditions/zone-name  8 far1

> /define/boundary-conditions/zone-name 10 far2

> 
adjoint/                parallel/               server/
define/                 parametric-study/       solve/
display/                plot/                   surface/
exit                    preferences/            turbo-workflow/
file/                   print-license-usage     views/
mesh/                   report/

> /define/boundary-conditions/zone-type  8 pressure-far-field

> /define/boundary-conditions/zone-type 10 pressure-far-field

> /define/boundary-conditions/zone-type  2 symmetry

> /define/boundary-conditions/zone-type  9 symmetry

> 
adjoint/                parallel/               server/
define/                 parametric-study/       solve/
display/                plot/                   surface/
exit                    preferences/            turbo-workflow/
file/                   print-license-usage     views/
mesh/                   report/

> /define/boundary-conditions/pressure-far-field (far2 far1)
far1 no 0 no 0.3 no 300 yes no 0.98769 no 0.15643 no 0. no yes 5 0.02

> /define/boundary-conditions/pressure-far-field (far2 far1)
far2 no 0 no 0.3 no 300 yes no 0.98769 no 0.15643 no 0. no yes 5 0.02

> 
adjoint/                parallel/               server/
define/                 parametric-study/       solve/
display/                plot/                   surface/
exit                    preferences/            turbo-workflow/
file/                   print-license-usage     views/
mesh/                   report/

> /solve/initialize/compute-defaults/pressure-far-field (far2 far1)
far1

> /solve/initialize/initialize-flow

> 
adjoint/                parallel/               server/
define/                 parametric-study/       solve/
display/                plot/                   surface/
exit                    preferences/            turbo-workflow/
file/                   print-license-usage     views/
mesh/                   report/

> /solve/monitors/residual/convergence-criteria 1.e-9 1.e-9 1.e-9 1.e-9 1.e-9 1.e-9 1.e-9

> /solve/iterate 2000

  iter  continuity  x-velocity  y-velocity  z-velocity      energy           k       omega     time/iter
     1  1.0000e+00  1.0000e+00  1.0000e+00  1.0000e+00  1.0000e+00  1.5307e-01  2.5113e-01  0:00:00 1999
     2  4.5784e-01  4.5643e-01  3.7858e-01  1.0000e+00  4.7447e-01  1.1625e-01  9.8626e-02  0:00:00 1998
     3  2.4017e-01  2.0248e-01  1.7223e-01  6.3489e-01  2.4634e-01  9.0583e-02  7.4266e-02  0:00:00 1997
     4  1.4103e-01  1.7239e-01  1.2321e-01  3.6692e-01  1.4481e-01  7.2927e-02  6.0591e-02  0:00:00 1996
     5  7.8663e-02  1.4476e-01  9.4557e-02  4.0304e-01  8.1118e-02  6.1063e-02  5.2689e-02  0:00:00 1995
     6  7.3347e-02  1.0652e-01  6.6756e-02  5.2475e-01  7.8394e-02  5.2107e-02  4.6411e-02  0:00:00 1994
     7  9.7694e-02  7.5477e-02  4.4511e-02  6.1364e-01  1.0578e-01  4.5015e-02  4.1240e-02  0:33:13 1993
     8  1.2381e-01  5.4260e-02  3.1367e-02  6.1365e-01  1.3442e-01  3.9280e-02  3.6958e-02  0:26:34 1992
     9  1.4063e-01  3.8102e-02  2.6697e-02  6.2255e-01  1.5259e-01  3.4609e-02  3.3347e-02  0:21:14 1991
    10  1.4853e-01  2.6066e-02  2.6623e-02  7.0785e-01  1.6118e-01  3.0766e-02  3.0233e-02  0:16:59 1990
    11  1.4608e-01  1.8423e-02  2.6884e-02  7.3151e-01  1.5842e-01  2.7629e-02  2.7520e-02  0:13:35 1989

  iter  continuity  x-velocity  y-velocity  z-velocity      energy           k       omega     time/iter
    12  1.3268e-01  1.5552e-02  2.5842e-02  7.0076e-01  1.4336e-01  2.5080e-02  2.5157e-02  0:10:51 1988
    13  1.1678e-01  1.4494e-02  2.3492e-02  6.1627e-01  1.2579e-01  2.2919e-02  2.3128e-02  0:08:41 1987
    14  9.9464e-02  1.3852e-02  2.0350e-02  5.5245e-01  1.0683e-01  2.1051e-02  2.1376e-02  0:06:56 1986
    15  8.1440e-02  1.3226e-02  1.6971e-02  5.2813e-01  8.7117e-02  1.9425e-02  1.9849e-02  0:05:33 1985
    16  6.4960e-02  1.2104e-02  1.3765e-02  5.6585e-01  6.9169e-02  1.8001e-02  1.8516e-02  0:04:26 1984
    17  5.0665e-02  1.0942e-02  1.0993e-02  6.6002e-01  5.3630e-02  1.6741e-02  1.7380e-02  0:03:33 1983
    18  3.9356e-02  9.8659e-03  8.8436e-03  8.0562e-01  4.1335e-02  1.5608e-02  1.6447e-02  0:09:27 1982
    19  3.1472e-02  9.1553e-03  7.2824e-03  1.0030e+00  3.2746e-02  1.4592e-02  1.5664e-02  0:07:33 1981
    20  2.6658e-02  8.7978e-03  6.2700e-03  1.2464e+00  2.7476e-02  1.3683e-02  1.4965e-02  0:06:02 1980
    21  2.4142e-02  8.6933e-03  5.7011e-03  1.5294e+00  2.4696e-02  1.2867e-02  1.4374e-02  0:04:50 1979
    22  2.3035e-02  8.7304e-03  5.4488e-03  1.8426e+00  2.3445e-02  1.2132e-02  1.3837e-02  0:03:52 1978

  iter  continuity  x-velocity  y-velocity  z-velocity      energy           k       omega     time/iter
    23  2.2789e-02  8.8375e-03  5.4013e-03  2.1766e+00  2.3129e-02  1.1468e-02  1.3336e-02  0:03:05 1977
    24  2.3090e-02  8.9616e-03  5.4808e-03  2.5196e+00  2.3403e-02  1.0864e-02  1.2872e-02  0:02:28 1976
    25  2.3713e-02  9.0721e-03  5.6585e-03  2.8591e+00  2.4026e-02  1.0316e-02  1.2441e-02  0:01:58 1975
    26  2.4530e-02  9.1867e-03  5.8958e-03  3.1823e+00  2.4859e-02  9.8199e-03  1.2040e-02  0:01:35 1974
    27  2.5530e-02  9.3045e-03  6.1958e-03  3.4766e+00  2.5892e-02  9.3727e-03  1.1658e-02  0:01:16 1973
    28  2.6717e-02  9.4223e-03  6.5547e-03  3.7304e+00  2.7138e-02  8.9739e-03  1.1300e-02  0:01:01 1972
    29  2.8115e-02  9.5550e-03  6.9520e-03  3.9324e+00  2.8622e-02  8.6184e-03  1.0972e-02  0:00:48 1971
    30  2.9702e-02  9.6831e-03  7.4025e-03  4.0755e+00  3.0322e-02  8.2992e-03  1.0679e-02  0:00:39 1970
    31  3.1431e-02  9.7957e-03  7.8907e-03  4.1546e+00  3.2184e-02  8.0097e-03  1.0397e-02  0:07:05 1969
    32  3.3234e-02  9.8787e-03  8.3867e-03  4.1632e+00  3.4136e-02  7.7472e-03  1.0140e-02  0:05:40 1968
    33  3.5038e-02  9.9233e-03  8.8860e-03  4.1047e+00  3.6098e-02  7.5138e-03  9.8955e-03  0:04:32 1967

  iter  continuity  x-velocity  y-velocity  z-velocity      energy           k       omega     time/iter
    34  3.6715e-02  9.9141e-03  9.3719e-03  3.9810e+00  3.7929e-02  7.3066e-03  9.6573e-03  0:03:37 1966
    35  3.8191e-02  9.8384e-03  9.8237e-03  3.7958e+00  3.9553e-02  7.1171e-03  9.4283e-03  0:02:54 1965
    36  3.9381e-02  9.7033e-03  1.0213e-02  3.5562e+00  4.0880e-02  6.9458e-03  9.1992e-03  0:02:19 1964
    37  4.0212e-02  9.5045e-03  1.0533e-02  3.2705e+00  4.1833e-02  6.7908e-03  8.9570e-03  0:01:51 1963
    38  4.0658e-02  9.2502e-03  1.0767e-02  2.9742e+00  4.2380e-02  6.6514e-03  8.7232e-03  0:01:29 1962
    39  4.0722e-02  8.9365e-03  1.0913e-02  2.7022e+00  4.2528e-02  6.5284e-03  8.4345e-03  0:01:11 1961
    40  4.0367e-02  8.5785e-03  1.0960e-02  2.5067e+00  4.2230e-02  6.4232e-03  8.1570e-03  0:00:57 1960
    41  3.9556e-02  8.1710e-03  1.0910e-02  2.4355e+00  4.1440e-02  6.3349e-03  7.9014e-03  0:00:45 1959
    42  3.8387e-02  7.7341e-03  1.0770e-02  2.5057e+00  4.0274e-02  6.2657e-03  7.6285e-03  0:00:36 1958
    43  3.6951e-02  7.2937e-03  1.0545e-02  2.7292e+00  3.8827e-02  6.2150e-03  7.3469e-03  0:00:29 1957
    44  3.5097e-02  6.8262e-03  1.0251e-02  3.0942e+00  3.6920e-02  6.1799e-03  7.0200e-03  0:00:23 1956

  iter  continuity  x-velocity  y-velocity  z-velocity      energy           k       omega     time/iter
    45  3.3030e-02  6.3775e-03  9.8962e-03  3.5341e+00  3.4785e-02  6.1635e-03  6.6798e-03  0:06:50 1955
    46  3.0785e-02  5.9515e-03  9.4988e-03  3.9959e+00  3.2456e-02  6.1598e-03  6.3928e-03  0:05:27 1954
    47  2.8403e-02  5.5591e-03  9.0743e-03  4.4521e+00  2.9979e-02  6.1609e-03  6.0997e-03  0:04:22 1953
    48  2.5846e-02  5.2277e-03  8.6391e-03  4.8763e+00  2.7304e-02  6.1687e-03  5.7666e-03  0:03:29 1952
    49  2.3176e-02  4.9595e-03  8.2118e-03  5.2681e+00  2.4499e-02  6.1977e-03  5.5122e-03  0:02:47 1951
    50  2.0495e-02  4.7725e-03  7.8095e-03  5.5927e+00  2.1673e-02  6.2327e-03  5.3426e-03  0:02:14 1950
    51  1.7813e-02  4.6658e-03  7.4514e-03  5.8380e+00  1.8834e-02  6.2625e-03  5.1781e-03  0:01:47 1949
    52  1.5168e-02  4.6316e-03  7.1562e-03  6.0051e+00  1.6023e-02  6.2875e-03  5.1129e-03  0:01:26 1948
    53  1.2650e-02  4.6507e-03  6.9415e-03  6.1095e+00  1.3317e-02  6.2991e-03  5.0484e-03  0:01:08 1947
    54  1.0492e-02  4.7192e-03  6.8131e-03  6.0953e+00  1.0962e-02  6.3170e-03  5.1070e-03  0:00:55 1946
    55  8.9114e-03  4.8275e-03  6.7780e-03  5.9801e+00  9.1819e-03  6.3266e-03  5.1894e-03  0:00:44 1945

  iter  continuity  x-velocity  y-velocity  z-velocity      energy           k       omega     time/iter
    56  8.1692e-03  4.9592e-03  6.8296e-03  5.7615e+00  8.2642e-03  6.3333e-03  5.2556e-03  0:00:35 1944
    57  8.4830e-03  5.0975e-03  6.9610e-03  5.4762e+00  8.4801e-03  6.3188e-03  5.2708e-03  0:00:28 1943
    58  9.6994e-03  5.2343e-03  7.1514e-03  5.0952e+00  9.6781e-03  6.2875e-03  5.3208e-03  0:06:51 1942
    59  1.1481e-02  5.3760e-03  7.3910e-03  4.6371e+00  1.1486e-02  6.2519e-03  5.2985e-03  0:05:28 1941
    60  1.3517e-02  5.4793e-03  7.6617e-03  4.1186e+00  1.3556e-02  6.2258e-03  5.2718e-03  0:04:23 1940
    61  1.5651e-02  5.5740e-03  7.9369e-03  3.6532e+00  1.5717e-02  6.2089e-03  5.2584e-03  0:03:30 1939
    62  1.7855e-02  5.6625e-03  8.1906e-03  3.2413e+00  1.7942e-02  6.2073e-03  5.2088e-03  0:02:48 1938
    63  2.0113e-02  5.7464e-03  8.4188e-03  2.8988e+00  2.0231e-02  6.2485e-03  5.1892e-03  0:02:14 1937
    64  2.2354e-02  5.8169e-03  8.6224e-03  2.6309e+00  2.2489e-02  6.2858e-03  5.1345e-03  0:01:47 1936
    65  2.4453e-02  5.8589e-03  8.7865e-03  2.5571e+00  2.4605e-02  6.3445e-03  5.0810e-03  0:01:26 1935
    66  2.6233e-02  5.9007e-03  8.9058e-03  2.6658e+00  2.6397e-02  6.4020e-03  5.0146e-03  0:01:09 1934

  iter  continuity  x-velocity  y-velocity  z-velocity      energy           k       omega     time/iter
    67  2.7820e-02  5.9218e-03  8.9921e-03  2.9207e+00  2.8020e-02  6.4450e-03  4.9227e-03  0:00:55 1933
    68  2.8658e-02  5.9139e-03  9.0172e-03  3.2561e+00  2.8856e-02  6.4771e-03  4.8424e-03  0:00:44 1932
    69  2.8423e-02  5.9311e-03  9.0387e-03  3.6200e+00  2.8586e-02  6.5001e-03  4.7644e-03  0:00:35 1931
    70  2.7556e-02  6.1022e-03  8.9736e-03  3.9845e+00  2.7679e-02  6.5127e-03  4.6788e-03  0:00:28 1930
    71  2.6286e-02  6.3513e-03  8.8663e-03  4.3254e+00  2.6368e-02  6.5260e-03  4.6091e-03  0:06:48 1929
    72  2.4596e-02  6.6809e-03  8.7048e-03  4.6275e+00  2.4614e-02  6.5238e-03  4.5470e-03  0:05:26 1928
    73  2.2496e-02  7.0176e-03  8.5035e-03  4.8755e+00  2.2440e-02  6.5034e-03  4.4711e-03  0:04:21 1927
    74  2.0109e-02  7.2679e-03  8.2657e-03  5.0676e+00  1.9964e-02  6.4668e-03  4.4150e-03  0:03:29 1926
    75  1.7610e-02  7.4469e-03  7.9878e-03  5.1976e+00  1.7374e-02  6.4110e-03  4.3380e-03  0:02:47 1925
    76  1.5119e-02  7.5192e-03  7.6453e-03  5.2351e+00  1.4804e-02  6.3489e-03  4.2429e-03  0:02:13 1924
    77  1.2785e-02  7.4715e-03  7.2672e-03  5.1802e+00  1.2417e-02  6.2777e-03  4.1926e-03  0:01:47 1923

  iter  continuity  x-velocity  y-velocity  z-velocity      energy           k       omega     time/iter
    78  1.0752e-02  7.3166e-03  6.8156e-03  5.1914e+00  1.0368e-02  6.1982e-03  4.1373e-03  0:01:25 1922
    79  9.2195e-03  7.0272e-03  6.3973e-03  5.2121e+00  8.9090e-03  6.1089e-03  4.0897e-03  0:01:08 1921
    80  8.2714e-03  6.6337e-03  5.9945e-03  5.1491e+00  8.1172e-03  6.0150e-03  4.0272e-03  0:00:55 1920
    81  7.8733e-03  6.1627e-03  5.6287e-03  5.0328e+00  7.9231e-03  5.9140e-03  3.9623e-03  0:00:44 1919
    82  7.9061e-03  5.6613e-03  5.2914e-03  4.8734e+00  8.1490e-03  5.8071e-03  3.9061e-03  0:00:35 1918
    83  8.1362e-03  5.1548e-03  5.0150e-03  4.6313e+00  8.5344e-03  5.6950e-03  3.8669e-03  0:00:28 1917
    84  8.3979e-03  4.6623e-03  4.8078e-03  4.3954e+00  8.9078e-03  5.5862e-03  3.8524e-03  0:00:22 1916
    85  8.5752e-03  4.1947e-03  4.6632e-03  4.1533e+00  9.1582e-03  5.4773e-03  3.8116e-03  0:06:41 1915
    86  8.5927e-03  3.7857e-03  4.5728e-03  3.9205e+00  9.2205e-03  5.3746e-03  3.7874e-03  0:05:20 1914
    87  8.4369e-03  3.4428e-03  4.5194e-03  3.7072e+00  9.0877e-03  5.2745e-03  3.7746e-03  0:04:16 1913
    88  8.1221e-03  3.1793e-03  4.4841e-03  3.5290e+00  8.7777e-03  5.1738e-03  3.7635e-03  0:03:25 1912

  iter  continuity  x-velocity  y-velocity  z-velocity      energy           k       omega     time/iter
    89  7.6808e-03  3.0005e-03  4.4565e-03  3.4007e+00  8.3264e-03  5.0747e-03  3.7925e-03  0:02:44 1911
    90  7.1577e-03  2.8861e-03  4.4241e-03  3.3360e+00  7.7824e-03  4.9795e-03  3.8262e-03  0:02:11 1910
    91  6.6193e-03  2.8233e-03  4.3931e-03  3.3451e+00  7.2153e-03  4.8915e-03  3.8534e-03  0:01:45 1909
    92  6.1144e-03  2.8024e-03  4.3538e-03  3.4329e+00  6.6748e-03  4.8081e-03  3.8935e-03  0:01:24 1908
    93  5.6842e-03  2.8083e-03  4.3040e-03  3.5830e+00  6.2011e-03  4.7280e-03  3.9521e-03  0:01:07 1907
    94  5.3571e-03  2.8328e-03  4.2440e-03  3.7862e+00  5.8219e-03  4.6568e-03  3.9859e-03  0:00:54 1906
    95  5.1432e-03  2.8768e-03  4.1762e-03  4.0280e+00  5.5493e-03  4.5961e-03  4.0817e-03  0:00:43 1905
    96  5.0313e-03  2.9497e-03  4.1035e-03  4.2897e+00  5.3803e-03  4.5471e-03  4.0912e-03  0:00:34 1904
    97  4.9890e-03  3.0472e-03  4.0291e-03  4.5477e+00  5.2868e-03  4.5032e-03  4.1033e-03  0:00:27 1903
    98  4.9934e-03  3.1665e-03  3.9561e-03  4.7828e+00  5.2477e-03  4.4620e-03  4.1266e-03  0:06:42 1902
    99  5.0255e-03  3.2896e-03  3.8812e-03  5.0061e+00  5.2431e-03  4.4278e-03  4.1640e-03  0:05:22 1901

  iter  continuity  x-velocity  y-velocity  z-velocity      energy           k       omega     time/iter
   100  5.0781e-03  3.4142e-03  3.8046e-03  5.2101e+00  5.2670e-03  4.4011e-03  4.1855e-03  0:04:17 1900
   101  5.1490e-03  3.5333e-03  3.7256e-03  5.3814e+00  5.3176e-03  4.3788e-03  4.2034e-03  0:03:26 1899
   102  5.2397e-03  3.6382e-03  3.6444e-03  5.5166e+00  5.3959e-03  4.3616e-03  4.2049e-03  0:02:44 1898
   103  5.3507e-03  3.7227e-03  3.5617e-03  5.6232e+00  5.5005e-03  4.3478e-03  4.2067e-03  0:02:11 1897
   104  5.4850e-03  3.7834e-03  3.4794e-03  5.6981e+00  5.6325e-03  4.3373e-03  4.2112e-03  0:01:45 1896
   105  5.6353e-03  3.8169e-03  3.4021e-03  5.7076e+00  5.7820e-03  4.3314e-03  4.1990e-03  0:01:24 1895
   106  5.7938e-03  3.8447e-03  3.3259e-03  5.6591e+00  5.9418e-03  4.3258e-03  4.1569e-03  0:01:07 1894
   107  5.9458e-03  3.8508e-03  3.2759e-03  5.5372e+00  6.0900e-03  4.3190e-03  4.1269e-03  0:00:54 1893
   108  6.0772e-03  3.8293e-03  3.2286e-03  5.3935e+00  6.2171e-03  4.3119e-03  4.0980e-03  0:00:43 1892
   109  6.1994e-03  3.7959e-03  3.1862e-03  5.2261e+00  6.3334e-03  4.3033e-03  4.0457e-03  0:00:34 1891
   110  6.2854e-03  3.7596e-03  3.1574e-03  5.0269e+00  6.4132e-03  4.2947e-03  4.0073e-03  0:00:27 1890

  iter  continuity  x-velocity  y-velocity  z-velocity      energy           k       omega     time/iter
   111  6.3368e-03  3.7201e-03  3.1413e-03  4.8129e+00  6.4572e-03  4.2845e-03  3.9575e-03  0:06:40 1889
   112  6.3505e-03  3.6757e-03  3.1367e-03  4.5933e+00  6.4619e-03  4.2702e-03  3.9151e-03  0:05:20 1888
   113  6.3277e-03  3.6287e-03  3.1424e-03  4.3749e+00  6.4279e-03  4.2538e-03  3.8646e-03  0:04:16 1887
   114  6.2763e-03  3.5826e-03  3.1566e-03  4.1503e+00  6.3632e-03  4.2342e-03  3.8331e-03  0:03:24 1886
   115  6.2083e-03  3.5393e-03  3.1781e-03  3.9323e+00  6.2799e-03  4.2107e-03  3.7457e-03  0:02:43 1885
   116  6.1132e-03  3.4964e-03  3.2038e-03  3.6665e+00  6.1685e-03  4.1839e-03  3.6731e-03  0:02:11 1884
   117  6.0071e-03  3.4547e-03  3.2331e-03  3.4308e+00  6.0456e-03  4.1555e-03  3.6153e-03  0:01:44 1883
   118  5.8945e-03  3.4142e-03  3.2632e-03  3.2052e+00  5.9163e-03  4.1216e-03  3.5449e-03  0:01:24 1882
   119  5.7737e-03  3.3739e-03  3.2916e-03  3.0075e+00  5.7793e-03  4.0847e-03  3.4832e-03  0:01:07 1881
   120  5.6561e-03  3.3352e-03  3.3180e-03  2.8474e+00  5.6460e-03  4.0444e-03  3.4360e-03  0:00:53 1880
   121  5.5381e-03  3.2958e-03  3.3405e-03  2.7330e+00  5.5133e-03  4.0041e-03  3.3935e-03  0:00:43 1879

  iter  continuity  x-velocity  y-velocity  z-velocity      energy           k       omega     time/iter
   122  5.4270e-03  3.2572e-03  3.3578e-03  2.6659e+00  5.3886e-03  3.9671e-03  3.3592e-03  0:00:34 1878
   123  5.3215e-03  3.2192e-03  3.3702e-03  2.6421e+00  5.2709e-03  3.9455e-03  3.3336e-03  0:00:27 1877
   124  5.2131e-03  3.1811e-03  3.3769e-03  2.6525e+00  5.1524e-03  3.9515e-03  3.2828e-03  0:06:37 1876
   125  5.1155e-03  3.1433e-03  3.3771e-03  2.7099e+00  5.0462e-03  3.9765e-03  3.2552e-03  0:05:17 1875
   126  5.0248e-03  3.1035e-03  3.3703e-03  2.7832e+00  4.9486e-03  4.0022e-03  3.2191e-03  0:04:14 1874
   127  4.9339e-03  3.0623e-03  3.3570e-03  2.8747e+00  4.8525e-03  4.0274e-03  3.2018e-03  0:03:23 1873
   128  4.8466e-03  3.0202e-03  3.3369e-03  2.9775e+00  4.7615e-03  4.0478e-03  3.2016e-03  0:02:42 1872
   129  4.7707e-03  2.9778e-03  3.3107e-03  3.0798e+00  4.6833e-03  4.0646e-03  3.1515e-03  0:02:10 1871
   130  4.7017e-03  2.9338e-03  3.2792e-03  3.1650e+00  4.6132e-03  4.0829e-03  3.1423e-03  0:01:44 1870
   131  4.6390e-03  2.8883e-03  3.2436e-03  3.2372e+00  4.5505e-03  4.0990e-03  3.1147e-03  0:01:23 1869
   132  4.5847e-03  2.8423e-03  3.2054e-03  3.2935e+00  4.4971e-03  4.1118e-03  3.0128e-03  0:01:06 1868

  iter  continuity  x-velocity  y-velocity  z-velocity      energy           k       omega     time/iter
   133  4.5446e-03  2.7979e-03  3.1651e-03  3.3294e+00  4.4584e-03  4.1228e-03  2.9722e-03  0:00:53 1867
   134  4.5193e-03  2.7552e-03  3.1238e-03  3.3473e+00  4.4349e-03  4.1299e-03  2.9613e-03  0:00:42 1866
   135  4.5006e-03  2.7125e-03  3.0828e-03  3.3457e+00  4.4184e-03  4.1340e-03  2.9272e-03  0:00:34 1865
   136  4.4817e-03  2.6715e-03  3.0424e-03  3.3241e+00  4.4019e-03  4.1366e-03  2.9149e-03  0:00:27 1864
   137  4.4700e-03  2.6337e-03  3.0036e-03  3.2844e+00  4.3928e-03  4.1388e-03  2.8560e-03  0:06:34 1863
   138  4.4611e-03  2.5979e-03  2.9658e-03  3.2326e+00  4.3863e-03  4.1387e-03  2.8301e-03  0:05:15 1862
   139  4.4575e-03  2.5642e-03  2.9305e-03  3.1572e+00  4.3850e-03  4.1350e-03  2.8084e-03  0:04:12 1861
   140  4.4551e-03  2.5330e-03  2.8976e-03  3.0641e+00  4.3848e-03  4.1291e-03  2.7498e-03  0:03:22 1860
   141  4.4548e-03  2.5040e-03  2.8667e-03  2.9659e+00  4.3867e-03  4.1213e-03  2.7196e-03  0:02:41 1859
   142  4.4552e-03  2.4772e-03  2.8371e-03  2.8653e+00  4.3893e-03  4.1124e-03  2.6977e-03  0:02:09 1858
   143  4.4537e-03  2.4522e-03  2.8086e-03  2.7410e+00  4.3898e-03  4.1051e-03  2.6855e-03  0:01:43 1857

  iter  continuity  x-velocity  y-velocity  z-velocity      energy           k       omega     time/iter
   144  4.4490e-03  2.4287e-03  2.7809e-03  2.6081e+00  4.3870e-03  4.0948e-03  2.6641e-03  0:01:22 1856
   145  4.4405e-03  2.4067e-03  2.7533e-03  2.4628e+00  4.3804e-03  4.0835e-03  2.6431e-03  0:01:06 1855
   146  4.4296e-03  2.3867e-03  2.7254e-03  2.3116e+00  4.3713e-03  4.0658e-03  2.6325e-03  0:00:53 1854
   147  4.4165e-03  2.3695e-03  2.6965e-03  2.1631e+00  4.3601e-03  4.0463e-03  2.6133e-03  0:00:42 1853
   148  4.4021e-03  2.3509e-03  2.6688e-03  2.0204e+00  4.3474e-03  4.0229e-03  2.5892e-03  0:00:34 1852
   149  4.3864e-03  2.3315e-03  2.6418e-03  1.8847e+00  4.3335e-03  3.9982e-03  2.5552e-03  0:00:27 1851
   150  4.3694e-03  2.3115e-03  2.6151e-03  1.7591e+00  4.3180e-03  3.9731e-03  2.5445e-03  0:00:22 1850
   151  4.3498e-03  2.2910e-03  2.5885e-03  1.6453e+00  4.2999e-03  3.9457e-03  2.5155e-03  0:06:27 1849
   152  4.3282e-03  2.2702e-03  2.5616e-03  1.5475e+00  4.2797e-03  3.9117e-03  2.4983e-03  0:05:09 1848
   153  4.3059e-03  2.2494e-03  2.5348e-03  1.4724e+00  4.2587e-03  3.8722e-03  2.5147e-03  0:04:07 1847
   154  4.2837e-03  2.2288e-03  2.5081e-03  1.4184e+00  4.2376e-03  3.8319e-03  2.4967e-03  0:03:18 1846

  iter  continuity  x-velocity  y-velocity  z-velocity      energy           k       omega     time/iter
   155  4.2621e-03  2.2084e-03  2.4817e-03  1.3858e+00  4.2169e-03  3.7907e-03  2.4714e-03  0:02:38 1845
   156  4.2394e-03  2.1880e-03  2.4564e-03  1.3735e+00  4.1951e-03  3.7440e-03  2.4202e-03  0:02:06 1844
   157  4.2160e-03  2.1673e-03  2.4325e-03  1.3801e+00  4.1724e-03  3.6963e-03  2.3780e-03  0:01:41 1843
   158  4.1917e-03  2.1465e-03  2.4095e-03  1.4017e+00  4.1486e-03  3.6480e-03  2.3607e-03  0:01:21 1842
   159  4.1667e-03  2.1257e-03  2.3871e-03  1.4340e+00  4.1241e-03  3.5997e-03  2.3284e-03  0:01:05 1841
   160  4.1415e-03  2.1049e-03  2.3657e-03  1.4752e+00  4.0991e-03  3.5517e-03  2.3014e-03  0:00:52 1840
   161  4.1149e-03  2.0839e-03  2.3459e-03  1.5224e+00  4.0727e-03  3.5022e-03  2.3040e-03  0:00:41 1839
   162  4.0862e-03  2.0628e-03  2.3279e-03  1.5712e+00  4.0439e-03  3.4538e-03  2.2683e-03  0:00:33 1838
   163  4.0549e-03  2.0414e-03  2.3112e-03  1.6187e+00  4.0123e-03  3.4043e-03  2.2416e-03  0:00:26 1837
   164  4.0223e-03  2.0202e-03  2.2960e-03  1.6618e+00  3.9794e-03  3.3534e-03  2.2223e-03  0:06:28 1836
   165  3.9885e-03  1.9993e-03  2.2817e-03  1.6999e+00  3.9451e-03  3.3084e-03  2.2170e-03  0:05:10 1835

  iter  continuity  x-velocity  y-velocity  z-velocity      energy           k       omega     time/iter
   166  3.9535e-03  1.9788e-03  2.2688e-03  1.7315e+00  3.9094e-03  3.2646e-03  2.2082e-03  0:04:08 1834
   167  3.9180e-03  1.9589e-03  2.2575e-03  1.7564e+00  3.8730e-03  3.2250e-03  2.1769e-03  0:03:18 1833
   168  3.8818e-03  1.9396e-03  2.2480e-03  1.7737e+00  3.8359e-03  3.1851e-03  2.1554e-03  0:02:39 1832
   169  3.8455e-03  1.9212e-03  2.2400e-03  1.7844e+00  3.7984e-03  3.1476e-03  2.1269e-03  0:02:07 1831
   170  3.8085e-03  1.9034e-03  2.2335e-03  1.7877e+00  3.7601e-03  3.1117e-03  2.1001e-03  0:01:41 1830
   171  3.7712e-03  1.8866e-03  2.2282e-03  1.7832e+00  3.7216e-03  3.0783e-03  2.0807e-03  0:01:21 1829
   172  3.7350e-03  1.8711e-03  2.2244e-03  1.7726e+00  3.6840e-03  3.0475e-03  2.0801e-03  0:01:05 1828
   173  3.6998e-03  1.8567e-03  2.2216e-03  1.7579e+00  3.6473e-03  3.0208e-03  2.0446e-03  0:00:52 1827
   174  3.6634e-03  1.8441e-03  2.2186e-03  1.7374e+00  3.6095e-03  2.9977e-03  2.0491e-03  0:00:41 1826
   175  3.6265e-03  1.8334e-03  2.2172e-03  1.7119e+00  3.5711e-03  2.9781e-03  2.0285e-03  0:00:33 1825
   176  3.5914e-03  1.8229e-03  2.2174e-03  1.6821e+00  3.5346e-03  2.9624e-03  2.0182e-03  0:00:27 1824

  iter  continuity  x-velocity  y-velocity  z-velocity      energy           k       omega     time/iter
   177  3.5594e-03  1.8134e-03  2.2188e-03  1.6489e+00  3.5012e-03  2.9467e-03  2.0060e-03  0:00:21 1823
   178  3.5311e-03  1.8055e-03  2.2203e-03  1.6111e+00  3.4716e-03  2.9303e-03  1.9947e-03  0:06:21 1822
   179  3.5045e-03  1.7996e-03  2.2224e-03  1.5714e+00  3.4438e-03  2.9133e-03  1.9971e-03  0:05:05 1821
   180  3.4795e-03  1.7943e-03  2.2251e-03  1.5327e+00  3.4177e-03  2.8945e-03  1.9991e-03  0:04:04 1820
   181  3.4550e-03  1.7908e-03  2.2277e-03  1.4937e+00  3.3922e-03  2.8748e-03  1.9634e-03  0:03:15 1819
   182  3.4319e-03  1.7887e-03  2.2302e-03  1.4569e+00  3.3684e-03  2.8564e-03  1.9492e-03  0:02:36 1818
   183  3.4104e-03  1.7878e-03  2.2325e-03  1.4235e+00  3.3462e-03  2.8382e-03  1.9463e-03  0:02:05 1817
   184  3.3891e-03  1.7883e-03  2.2348e-03  1.3932e+00  3.3244e-03  2.8189e-03  1.9401e-03  0:01:40 1816
   185  3.3708e-03  1.7900e-03  2.2368e-03  1.3682e+00  3.3059e-03  2.7993e-03  1.9289e-03  0:01:20 1815
   186  3.3539e-03  1.7924e-03  2.2382e-03  1.3516e+00  3.2889e-03  2.7799e-03  1.9090e-03  0:01:04 1814
   187  3.3380e-03  1.7955e-03  2.2393e-03  1.3392e+00  3.2731e-03  2.7600e-03  1.8927e-03  0:00:51 1813

  iter  continuity  x-velocity  y-velocity  z-velocity      energy           k       omega     time/iter
   188  3.3231e-03  1.7993e-03  2.2396e-03  1.3351e+00  3.2585e-03  2.7392e-03  1.8867e-03  0:00:41 1812
   189  3.3092e-03  1.8037e-03  2.2392e-03  1.3402e+00  3.2450e-03  2.7174e-03  1.8759e-03  0:00:33 1811
   190  3.2955e-03  1.8083e-03  2.2379e-03  1.3553e+00  3.2319e-03  2.6952e-03  1.8663e-03  0:00:26 1810
   191  3.2802e-03  1.8130e-03  2.2357e-03  1.3766e+00  3.2174e-03  2.6726e-03  1.8594e-03  0:06:23 1809
   192  3.2633e-03  1.8176e-03  2.2325e-03  1.4076e+00  3.2014e-03  2.6503e-03  1.8400e-03  0:05:06 1808
   193  3.2468e-03  1.8223e-03  2.2280e-03  1.4471e+00  3.1860e-03  2.6271e-03  1.8291e-03  0:04:05 1807
   194  3.2288e-03  1.8264e-03  2.2223e-03  1.4935e+00  3.1690e-03  2.6014e-03  1.8236e-03  0:03:16 1806
   195  3.2094e-03  1.8305e-03  2.2154e-03  1.5442e+00  3.1509e-03  2.5743e-03  1.8071e-03  0:02:36 1805
   196  3.1922e-03  1.8349e-03  2.2073e-03  1.5969e+00  3.1350e-03  2.5478e-03  1.7944e-03  0:02:05 1804
   197  3.1718e-03  1.8388e-03  2.1974e-03  1.6537e+00  3.1159e-03  2.5209e-03  1.7798e-03  0:01:40 1803
   198  3.1524e-03  1.8426e-03  2.1865e-03  1.7104e+00  3.0978e-03  2.4936e-03  1.7736e-03  0:01:20 1802

  iter  continuity  x-velocity  y-velocity  z-velocity      energy           k       omega     time/iter
   199  3.1344e-03  1.8459e-03  2.1741e-03  1.7677e+00  3.0812e-03  2.4659e-03  1.7750e-03  0:01:04 1801
   200  3.1153e-03  1.8486e-03  2.1604e-03  1.8220e+00  3.0634e-03  2.4381e-03  1.7694e-03  0:00:51 1800
   201  3.0932e-03  1.8503e-03  2.1454e-03  1.8744e+00  3.0426e-03  2.4120e-03  1.7613e-03  0:00:41 1799
   202  3.0711e-03  1.8514e-03  2.1290e-03  1.9236e+00  3.0218e-03  2.3859e-03  1.7540e-03  0:00:33 1798
   203  3.0492e-03  1.8522e-03  2.1114e-03  1.9692e+00  3.0011e-03  2.3596e-03  1.7511e-03  0:00:26 1797
   204  3.0288e-03  1.8527e-03  2.0926e-03  2.0099e+00  2.9818e-03  2.3331e-03  1.7492e-03  0:06:20 1796
   205  3.0080e-03  1.8528e-03  2.0724e-03  2.0468e+00  2.9621e-03  2.3084e-03  1.7432e-03  0:05:04 1795
   206  2.9872e-03  1.8523e-03  2.0512e-03  2.0797e+00  2.9422e-03  2.2863e-03  1.7381e-03  0:04:03 1794
   207  2.9657e-03  1.8508e-03  2.0288e-03  2.1077e+00  2.9216e-03  2.2651e-03  1.7340e-03  0:03:14 1793
   208  2.9470e-03  1.8482e-03  2.0055e-03  2.1293e+00  2.9037e-03  2.2433e-03  1.7434e-03  0:02:35 1792
   209  2.9290e-03  1.8454e-03  1.9811e-03  2.1467e+00  2.8863e-03  2.2216e-03  1.7448e-03  0:02:04 1791

  iter  continuity  x-velocity  y-velocity  z-velocity      energy           k       omega     time/iter
   210  2.9119e-03  1.8421e-03  1.9555e-03  2.1601e+00  2.8698e-03  2.2028e-03  1.7403e-03  0:01:39 1790
   211  2.8958e-03  1.8382e-03  1.9291e-03  2.1684e+00  2.8541e-03  2.1855e-03  1.7311e-03  0:01:19 1789
   212  2.8805e-03  1.8341e-03  1.9017e-03  2.1705e+00  2.8391e-03  2.1679e-03  1.7155e-03  0:01:03 1788
   213  2.8693e-03  1.8297e-03  1.8736e-03  2.1685e+00  2.8281e-03  2.1506e-03  1.7060e-03  0:00:51 1787
   214  2.8600e-03  1.8249e-03  1.8449e-03  2.1616e+00  2.8189e-03  2.1336e-03  1.6981e-03  0:00:41 1786
   215  2.8482e-03  1.8186e-03  1.8157e-03  2.1503e+00  2.8071e-03  2.1183e-03  1.6883e-03  0:00:32 1785
   216  2.8464e-03  1.8127e-03  1.7862e-03  2.1356e+00  2.8051e-03  2.1039e-03  1.6818e-03  0:00:26 1784
   217  2.8436e-03  1.8060e-03  1.7564e-03  2.1165e+00  2.8020e-03  2.0911e-03  1.6783e-03  0:00:21 1783
   218  2.8404e-03  1.7986e-03  1.7264e-03  2.0954e+00  2.7985e-03  2.0793e-03  1.6706e-03  0:06:13 1782
   219  2.8405e-03  1.7911e-03  1.6964e-03  2.0725e+00  2.7981e-03  2.0668e-03  1.6561e-03  0:04:58 1781
   220  2.8393e-03  1.7830e-03  1.6665e-03  2.0470e+00  2.7965e-03  2.0544e-03  1.6449e-03  0:03:58 1780

  iter  continuity  x-velocity  y-velocity  z-velocity      energy           k       omega     time/iter
   221  2.8450e-03  1.7750e-03  1.6368e-03  2.0192e+00  2.8016e-03  2.0422e-03  1.6484e-03  0:03:11 1779
   222  2.8572e-03  1.7670e-03  1.6074e-03  1.9894e+00  2.8131e-03  2.0310e-03  1.6326e-03  0:02:32 1778
   223  2.8686e-03  1.7580e-03  1.5785e-03  1.9580e+00  2.8239e-03  2.0192e-03  1.6361e-03  0:02:02 1777
   224  2.8797e-03  1.7487e-03  1.5502e-03  1.9219e+00  2.8344e-03  2.0066e-03  1.6438e-03  0:01:37 1776
   225  2.8916e-03  1.7391e-03  1.5226e-03  1.8846e+00  2.8456e-03  1.9946e-03  1.6398e-03  0:01:18 1775
   226  2.9032e-03  1.7293e-03  1.4958e-03  1.8481e+00  2.8567e-03  1.9829e-03  1.6359e-03  0:01:02 1774
   227  2.9182e-03  1.7194e-03  1.4695e-03  1.8087e+00  2.8711e-03  1.9711e-03  1.6266e-03  0:00:50 1773
   228  2.9418e-03  1.7101e-03  1.4440e-03  1.7708e+00  2.8939e-03  1.9585e-03  1.6101e-03  0:06:34 1772
   229  2.9695e-03  1.7006e-03  1.4196e-03  1.7356e+00  2.9208e-03  1.9453e-03  1.5983e-03  0:05:15 1771
   230  2.9902e-03  1.6902e-03  1.3962e-03  1.6987e+00  2.9408e-03  1.9326e-03  1.6033e-03  0:04:12 1770
   231  3.0031e-03  1.6789e-03  1.3738e-03  1.6611e+00  2.9533e-03  1.9194e-03  1.6011e-03  0:03:22 1769

  iter  continuity  x-velocity  y-velocity  z-velocity      energy           k       omega     time/iter
   232  3.0204e-03  1.6672e-03  1.3525e-03  1.6227e+00  2.9700e-03  1.9069e-03  1.5855e-03  0:02:41 1768
   233  3.0321e-03  1.6546e-03  1.3323e-03  1.5840e+00  2.9813e-03  1.8939e-03  1.5699e-03  0:02:09 1767
   234  3.0401e-03  1.6419e-03  1.3130e-03  1.5454e+00  2.9889e-03  1.8818e-03  1.5606e-03  0:01:43 1766
   235  3.0485e-03  1.6290e-03  1.2948e-03  1.5070e+00  2.9971e-03  1.8701e-03  1.5520e-03  0:01:22 1765
   236  3.0558e-03  1.6153e-03  1.2776e-03  1.4680e+00  3.0041e-03  1.8580e-03  1.5504e-03  0:01:06 1764
   237  3.0663e-03  1.6014e-03  1.2610e-03  1.4281e+00  3.0142e-03  1.8454e-03  1.5460e-03  0:00:53 1763
   238  3.0726e-03  1.5871e-03  1.2450e-03  1.3884e+00  3.0202e-03  1.8322e-03  1.5451e-03  0:00:42 1762
   239  3.0819e-03  1.5722e-03  1.2302e-03  1.3491e+00  3.0292e-03  1.8198e-03  1.5231e-03  0:00:34 1761
   240  3.0704e-03  1.5560e-03  1.2160e-03  1.3129e+00  3.0177e-03  1.8093e-03  1.5135e-03  0:00:27 1760
   241  3.0619e-03  1.5394e-03  1.2027e-03  1.2779e+00  3.0093e-03  1.7981e-03  1.5205e-03  0:06:13 1759
   242  3.0542e-03  1.5219e-03  1.1913e-03  1.2429e+00  3.0015e-03  1.7865e-03  1.5177e-03  0:04:58 1758

  iter  continuity  x-velocity  y-velocity  z-velocity      energy           k       omega     time/iter
   243  3.0400e-03  1.5049e-03  1.1785e-03  1.2091e+00  2.9874e-03  1.7766e-03  1.4859e-03  0:03:59 1757
   244  3.0296e-03  1.4871e-03  1.1665e-03  1.1764e+00  2.9770e-03  1.7691e-03  1.4720e-03  0:03:11 1756
   245  3.0136e-03  1.4684e-03  1.1551e-03  1.1416e+00  2.9612e-03  1.7627e-03  1.4702e-03  0:02:33 1755
   246  2.9929e-03  1.4491e-03  1.1438e-03  1.1059e+00  2.9407e-03  1.7579e-03  1.4631e-03  0:02:02 1754
   247  2.9691e-03  1.4295e-03  1.1327e-03  1.0692e+00  2.9172e-03  1.7541e-03  1.4568e-03  0:01:38 1753
   248  2.9428e-03  1.4097e-03  1.1214e-03  1.0325e+00  2.8912e-03  1.7509e-03  1.4549e-03  0:01:18 1752
   249  2.9142e-03  1.3893e-03  1.1102e-03  9.9687e-01  2.8630e-03  1.7484e-03  1.4492e-03  0:01:02 1751
   250  2.8828e-03  1.3683e-03  1.0990e-03  9.6120e-01  2.8320e-03  1.7457e-03  1.4386e-03  0:00:50 1750
   251  2.8499e-03  1.3470e-03  1.0875e-03  9.2510e-01  2.7996e-03  1.7429e-03  1.4332e-03  0:00:40 1749
   252  2.8166e-03  1.3252e-03  1.0758e-03  8.8925e-01  2.7667e-03  1.7408e-03  1.4274e-03  0:00:32 1748
   253  2.7830e-03  1.3031e-03  1.0637e-03  8.5408e-01  2.7335e-03  1.7399e-03  1.4272e-03  0:00:25 1747

  iter  continuity  x-velocity  y-velocity  z-velocity      energy           k       omega     time/iter
   254  2.7518e-03  1.2800e-03  1.0535e-03  8.1929e-01  2.7028e-03  1.7389e-03  1.4293e-03  0:00:20 1746
   255  2.7158e-03  1.2583e-03  1.0385e-03  7.8470e-01  2.6672e-03  1.7394e-03  1.4246e-03  0:06:05 1745
   256  2.6807e-03  1.2363e-03  1.0242e-03  7.5055e-01  2.6325e-03  1.7400e-03  1.4105e-03  0:04:52 1744
   257  2.6451e-03  1.2138e-03  1.0094e-03  7.1720e-01  2.5973e-03  1.7433e-03  1.4018e-03  0:03:54 1743
   258  2.6082e-03  1.1911e-03  9.9403e-04  6.8458e-01  2.5608e-03  1.7476e-03  1.3776e-03  0:03:07 1742
   259  2.5707e-03  1.1682e-03  9.7806e-04  6.5314e-01  2.5238e-03  1.7527e-03  1.3710e-03  0:02:29 1741
   260  2.5337e-03  1.1453e-03  9.6132e-04  6.2217e-01  2.4873e-03  1.7594e-03  1.3659e-03  0:01:59 1740
   261  2.4979e-03  1.1225e-03  9.4375e-04  5.9162e-01  2.4519e-03  1.7680e-03  1.3636e-03  0:01:35 1739
   262  2.4633e-03  1.0999e-03  9.2537e-04  5.6256e-01  2.4177e-03  1.7785e-03  1.3661e-03  0:01:16 1738
   263  2.4284e-03  1.0771e-03  9.0624e-04  5.4246e-01  2.3831e-03  1.7907e-03  1.3601e-03  0:01:01 1737
   264  2.3943e-03  1.0544e-03  8.8634e-04  5.1464e-01  2.3494e-03  1.8049e-03  1.3421e-03  0:00:49 1736

  iter  continuity  x-velocity  y-velocity  z-velocity      energy           k       omega     time/iter
   265  2.3615e-03  1.0319e-03  8.6553e-04  4.9142e-01  2.3170e-03  1.8197e-03  1.3312e-03  0:00:39 1735
   266  2.3301e-03  1.0091e-03  8.4509e-04  4.6766e-01  2.2859e-03  1.8345e-03  1.3272e-03  0:00:31 1734
   267  2.3003e-03  9.8804e-04  8.2272e-04  4.4540e-01  2.2565e-03  1.8486e-03  1.3253e-03  0:00:25 1733
   268  2.2722e-03  9.6784e-04  7.9897e-04  4.2422e-01  2.2287e-03  1.8628e-03  1.3262e-03  0:06:06 1732
   269  2.2458e-03  9.4793e-04  7.7459e-04  4.0450e-01  2.2025e-03  1.8770e-03  1.3246e-03  0:04:53 1731
   270  2.2210e-03  9.2819e-04  7.4994e-04  3.8618e-01  2.1781e-03  1.8907e-03  1.3109e-03  0:03:54 1730
   271  2.1970e-03  9.0878e-04  7.2494e-04  3.6896e-01  2.1544e-03  1.9039e-03  1.3043e-03  0:03:07 1729
   272  2.1753e-03  8.8996e-04  6.9957e-04  3.5285e-01  2.1330e-03  1.9164e-03  1.3081e-03  0:02:30 1728
   273  2.1564e-03  8.7189e-04  6.7391e-04  3.3763e-01  2.1145e-03  1.9282e-03  1.2941e-03  0:02:00 1727
   274  2.1403e-03  8.5466e-04  6.4797e-04  3.2320e-01  2.0987e-03  1.9398e-03  1.2873e-03  0:01:36 1726
   275  2.1269e-03  8.3831e-04  6.2185e-04  3.0953e-01  2.0856e-03  1.9515e-03  1.2877e-03  0:01:17 1725

  iter  continuity  x-velocity  y-velocity  z-velocity      energy           k       omega     time/iter
   276  2.1156e-03  8.2316e-04  5.9533e-04  2.9677e-01  2.0745e-03  1.9630e-03  1.2802e-03  0:01:01 1724
   277  2.1050e-03  8.0875e-04  5.6884e-04  2.8513e-01  2.0642e-03  1.9741e-03  1.2750e-03  0:00:49 1723
   278  2.0951e-03  7.9494e-04  5.4278e-04  2.7450e-01  2.0547e-03  1.9845e-03  1.2775e-03  0:00:39 1722
   279  2.0859e-03  7.8180e-04  5.1719e-04  2.6425e-01  2.0459e-03  1.9936e-03  1.2751e-03  0:00:31 1721
   280  2.0777e-03  7.6958e-04  4.9214e-04  2.5583e-01  2.0380e-03  2.0023e-03  1.2622e-03  0:00:25 1720
   281  2.0705e-03  7.5849e-04  4.6766e-04  2.4796e-01  2.0313e-03  2.0100e-03  1.2540e-03  0:06:04 1719
   282  2.0644e-03  7.4846e-04  4.4402e-04  2.3920e-01  2.0257e-03  2.0168e-03  1.2512e-03  0:04:51 1718
   283  2.0592e-03  7.3953e-04  4.2128e-04  2.3081e-01  2.0210e-03  2.0229e-03  1.2508e-03  0:03:53 1717
   284  2.0545e-03  7.3155e-04  3.9968e-04  2.2290e-01  2.0169e-03  2.0275e-03  1.2371e-03  0:03:06 1716
   285  2.0500e-03  7.2433e-04  3.7866e-04  2.1571e-01  2.0130e-03  2.0297e-03  1.2277e-03  0:02:29 1715
   286  2.0461e-03  7.1812e-04  3.5899e-04  2.0926e-01  2.0097e-03  2.0306e-03  1.2208e-03  0:01:59 1714

  iter  continuity  x-velocity  y-velocity  z-velocity      energy           k       omega     time/iter
   287  2.0427e-03  7.1304e-04  3.4101e-04  2.0361e-01  2.0070e-03  2.0313e-03  1.2148e-03  0:01:35 1713
   288  2.0397e-03  7.0903e-04  3.2473e-04  1.9876e-01  2.0047e-03  2.0304e-03  1.2183e-03  0:01:16 1712
   289  2.0366e-03  7.0595e-04  3.1020e-04  1.9480e-01  2.0022e-03  2.0286e-03  1.2001e-03  0:01:01 1711
   290  2.0332e-03  7.0374e-04  2.9747e-04  1.9176e-01  1.9995e-03  2.0263e-03  1.1924e-03  0:00:49 1710
   291  2.0298e-03  7.0236e-04  2.8662e-04  1.9000e-01  1.9968e-03  2.0230e-03  1.1845e-03  0:00:39 1709
   292  2.0266e-03  7.0183e-04  2.7764e-04  1.8926e-01  1.9943e-03  2.0197e-03  1.1778e-03  0:00:31 1708
   293  2.0237e-03  7.0209e-04  2.7055e-04  1.8867e-01  1.9920e-03  2.0153e-03  1.1703e-03  0:00:25 1707
   294  2.0208e-03  7.0309e-04  2.6533e-04  1.8857e-01  1.9898e-03  2.0101e-03  1.1654e-03  0:06:01 1706
   295  2.0179e-03  7.0474e-04  2.6189e-04  1.8949e-01  1.9875e-03  2.0036e-03  1.1632e-03  0:04:49 1705
   296  2.0147e-03  7.0705e-04  2.6048e-04  1.9132e-01  1.9848e-03  1.9946e-03  1.1603e-03  0:03:51 1704
   297  2.0105e-03  7.0966e-04  2.6018e-04  1.9394e-01  1.9811e-03  1.9843e-03  1.1544e-03  0:03:05 1703

  iter  continuity  x-velocity  y-velocity  z-velocity      energy           k       omega     time/iter
   298  2.0052e-03  7.1282e-04  2.6145e-04  1.9719e-01  1.9764e-03  1.9733e-03  1.1401e-03  0:02:28 1702
   299  1.9992e-03  7.1640e-04  2.6412e-04  2.0049e-01  1.9708e-03  1.9620e-03  1.1342e-03  0:01:58 1701
   300  1.9922e-03  7.2043e-04  2.6808e-04  2.0454e-01  1.9643e-03  1.9496e-03  1.1274e-03  0:01:34 1700
   301  1.9845e-03  7.2488e-04  2.7331e-04  2.0904e-01  1.9571e-03  1.9358e-03  1.1250e-03  0:01:15 1699
   302  1.9762e-03  7.2968e-04  2.7974e-04  2.1385e-01  1.9492e-03  1.9202e-03  1.1185e-03  0:01:00 1698
   303  1.9673e-03  7.3470e-04  2.8759e-04  2.1848e-01  1.9405e-03  1.9033e-03  1.1150e-03  0:00:48 1697
   304  1.9577e-03  7.4016e-04  2.9646e-04  2.2320e-01  1.9312e-03  1.8852e-03  1.1120e-03  0:00:39 1696
   305  1.9473e-03  7.4583e-04  3.0640e-04  2.2834e-01  1.9212e-03  1.8663e-03  1.1073e-03  0:00:31 1695
   306  1.9360e-03  7.5184e-04  3.1757e-04  2.3356e-01  1.9100e-03  1.8468e-03  1.0958e-03  0:00:25 1694
   307  1.9236e-03  7.5830e-04  3.2938e-04  2.3891e-01  1.8979e-03  1.8262e-03  1.0911e-03  0:00:20 1693
   308  1.9103e-03  7.6501e-04  3.4202e-04  2.4301e-01  1.8848e-03  1.8053e-03  1.0858e-03  0:05:54 1692

  iter  continuity  x-velocity  y-velocity  z-velocity      energy           k       omega     time/iter
   309  1.8963e-03  7.7184e-04  3.5567e-04  2.4815e-01  1.8710e-03  1.7838e-03  1.0759e-03  0:04:43 1691
   310  1.8817e-03  7.7877e-04  3.7033e-04  2.5329e-01  1.8565e-03  1.7615e-03  1.0799e-03  0:03:46 1690
   311  1.8667e-03  7.8584e-04  3.8593e-04  2.5849e-01  1.8418e-03  1.7389e-03  1.0772e-03  0:03:01 1689
   312  1.8517e-03  7.9304e-04  4.0237e-04  2.6360e-01  1.8269e-03  1.7163e-03  1.0740e-03  0:02:25 1688
   313  1.8367e-03  8.0036e-04  4.1957e-04  2.6796e-01  1.8120e-03  1.6933e-03  1.0729e-03  0:01:56 1687
   314  1.8219e-03  8.0782e-04  4.3743e-04  2.7326e-01  1.7973e-03  1.6704e-03  1.0704e-03  0:01:33 1686
   315  1.8072e-03  8.1535e-04  4.5587e-04  2.7870e-01  1.7827e-03  1.6475e-03  1.0665e-03  0:01:14 1685
   316  1.7926e-03  8.2292e-04  4.7481e-04  2.8383e-01  1.7683e-03  1.6241e-03  1.0630e-03  0:00:59 1684
   317  1.7784e-03  8.3050e-04  4.9412e-04  2.8901e-01  1.7542e-03  1.6003e-03  1.0634e-03  0:00:47 1683
   318  1.7646e-03  8.3805e-04  5.1374e-04  2.9425e-01  1.7406e-03  1.5763e-03  1.0674e-03  0:00:38 1682
   319  1.7514e-03  8.4553e-04  5.3354e-04  2.9991e-01  1.7276e-03  1.5519e-03  1.0632e-03  0:00:30 1681

  iter  continuity  x-velocity  y-velocity  z-velocity      energy           k       omega     time/iter
   320  1.7390e-03  8.5291e-04  5.5339e-04  3.0554e-01  1.7154e-03  1.5270e-03  1.0616e-03  0:06:00 1680
   321  1.7275e-03  8.6015e-04  5.7320e-04  3.1058e-01  1.7041e-03  1.5023e-03  1.0634e-03  0:04:48 1679
   322  1.7170e-03  8.6711e-04  5.9289e-04  3.1580e-01  1.6939e-03  1.4779e-03  1.0644e-03  0:03:50 1678
   323  1.7079e-03  8.7386e-04  6.1232e-04  3.2125e-01  1.6850e-03  1.4541e-03  1.0546e-03  0:03:04 1677
   324  1.7001e-03  8.8038e-04  6.3121e-04  3.2654e-01  1.6775e-03  1.4302e-03  1.0454e-03  0:02:27 1676
   325  1.6939e-03  8.8661e-04  6.4948e-04  3.3181e-01  1.6716e-03  1.4070e-03  1.0355e-03  0:01:58 1675
   326  1.6895e-03  8.9249e-04  6.6701e-04  3.3651e-01  1.6674e-03  1.3845e-03  1.0295e-03  0:01:34 1674
   327  1.6868e-03  8.9797e-04  6.8372e-04  3.4132e-01  1.6650e-03  1.3629e-03  1.0251e-03  0:01:15 1673
   328  1.6858e-03  9.0302e-04  6.9948e-04  3.4597e-01  1.6642e-03  1.3424e-03  1.0114e-03  0:01:00 1672
   329  1.6857e-03  9.0751e-04  7.1417e-04  3.5073e-01  1.6644e-03  1.3225e-03  1.0109e-03  0:00:48 1671
   330  1.6864e-03  9.1139e-04  7.2774e-04  3.5539e-01  1.6654e-03  1.3034e-03  1.0089e-03  0:00:38 1670

  iter  continuity  x-velocity  y-velocity  z-velocity      energy           k       omega     time/iter
   331  1.6878e-03  9.1456e-04  7.4002e-04  3.5987e-01  1.6671e-03  1.2857e-03  1.0079e-03  0:00:31 1669
   332  1.6899e-03  9.1709e-04  7.5097e-04  3.6413e-01  1.6694e-03  1.2691e-03  1.0001e-03  0:00:25 1668
   333  1.6925e-03  9.1891e-04  7.6058e-04  3.6820e-01  1.6722e-03  1.2535e-03  9.9208e-04  0:00:20 1667
   334  1.6954e-03  9.1990e-04  7.6881e-04  3.7224e-01  1.6753e-03  1.2387e-03  9.8750e-04  0:05:49 1666
   335  1.6985e-03  9.2004e-04  7.7553e-04  3.7598e-01  1.6786e-03  1.2253e-03  9.8116e-04  0:04:39 1665
   336  1.7017e-03  9.1932e-04  7.8071e-04  3.7961e-01  1.6819e-03  1.2130e-03  9.7212e-04  0:03:43 1664
   337  1.7049e-03  9.1770e-04  7.8431e-04  3.8318e-01  1.6852e-03  1.2021e-03  9.6147e-04  0:02:58 1663
   338  1.7079e-03  9.1519e-04  7.8629e-04  3.8660e-01  1.6882e-03  1.1916e-03  9.5332e-04  0:02:23 1662
   339  1.7104e-03  9.1173e-04  7.8664e-04  3.8991e-01  1.6907e-03  1.1825e-03  9.4395e-04  0:01:54 1661
   340  1.7121e-03  9.0728e-04  7.8533e-04  3.9307e-01  1.6924e-03  1.1740e-03  9.3728e-04  0:01:31 1660
   341  1.7130e-03  9.0187e-04  7.8242e-04  3.9608e-01  1.6933e-03  1.1669e-03  9.3605e-04  0:01:13 1659

  iter  continuity  x-velocity  y-velocity  z-velocity      energy           k       omega     time/iter
   342  1.7133e-03  8.9551e-04  7.7793e-04  3.9890e-01  1.6935e-03  1.1604e-03  9.2775e-04  0:00:58 1658
   343  1.7127e-03  8.8821e-04  7.7185e-04  4.0159e-01  1.6928e-03  1.1538e-03  9.1655e-04  0:00:47 1657
   344  1.7103e-03  8.7990e-04  7.6421e-04  4.0431e-01  1.6903e-03  1.1472e-03  9.1751e-04  0:00:37 1656
   345  1.7060e-03  8.7061e-04  7.5502e-04  4.0692e-01  1.6858e-03  1.1410e-03  9.0926e-04  0:00:30 1655
   346  1.7000e-03  8.6035e-04  7.4437e-04  4.0894e-01  1.6796e-03  1.1355e-03  8.9401e-04  0:05:55 1654
   347  1.6923e-03  8.4920e-04  7.3231e-04  4.1092e-01  1.6718e-03  1.1307e-03  8.8058e-04  0:04:44 1653
   348  1.6829e-03  8.3731e-04  7.1888e-04  4.1298e-01  1.6623e-03  1.1260e-03  8.6574e-04  0:03:47 1652
   349  1.6717e-03  8.2446e-04  7.0423e-04  4.1492e-01  1.6509e-03  1.1212e-03  8.5571e-04  0:03:01 1651
   350  1.6590e-03  8.1083e-04  6.8844e-04  4.1658e-01  1.6381e-03  1.1162e-03  8.4942e-04  0:02:25 1650
   351  1.6451e-03  7.9653e-04  6.7160e-04  4.1801e-01  1.6240e-03  1.1109e-03  8.4494e-04  0:01:56 1649
   352  1.6301e-03  7.8175e-04  6.5361e-04  4.1937e-01  1.6089e-03  1.1055e-03  8.4008e-04  0:01:33 1648

  iter  continuity  x-velocity  y-velocity  z-velocity      energy           k       omega     time/iter
   353  1.6141e-03  7.6644e-04  6.3485e-04  4.2087e-01  1.5928e-03  1.0998e-03  8.3174e-04  0:01:14 1647
   354  1.5967e-03  7.5062e-04  6.1542e-04  4.2244e-01  1.5753e-03  1.0944e-03  8.3111e-04  0:00:59 1646
   355  1.5780e-03  7.3417e-04  5.9532e-04  4.2328e-01  1.5566e-03  1.0889e-03  8.2677e-04  0:00:47 1645
   356  1.5587e-03  7.1739e-04  5.7481e-04  4.2393e-01  1.5373e-03  1.0834e-03  8.2007e-04  0:00:38 1644
   357  1.5394e-03  7.0067e-04  5.5387e-04  4.2471e-01  1.5180e-03  1.0777e-03  8.1096e-04  0:00:30 1643
   358  1.5201e-03  6.8407e-04  5.3266e-04  4.2599e-01  1.4988e-03  1.0718e-03  8.0638e-04  0:00:24 1642
   359  1.5012e-03  6.6757e-04  5.1151e-04  4.2693e-01  1.4799e-03  1.0656e-03  8.0241e-04  0:05:48 1641
   360  1.4825e-03  6.5125e-04  4.9055e-04  4.2755e-01  1.4615e-03  1.0589e-03  7.9529e-04  0:04:38 1640
   361  1.4644e-03  6.3514e-04  4.6985e-04  4.2810e-01  1.4436e-03  1.0518e-03  7.8985e-04  0:03:42 1639
   362  1.4469e-03  6.1924e-04  4.4957e-04  4.2872e-01  1.4262e-03  1.0444e-03  7.8654e-04  0:02:58 1638
   363  1.4298e-03  6.0402e-04  4.2970e-04  4.2906e-01  1.4095e-03  1.0370e-03  7.8257e-04  0:02:22 1637

  iter  continuity  x-velocity  y-velocity  z-velocity      energy           k       omega     time/iter
   364  1.4131e-03  5.8921e-04  4.1021e-04  4.2951e-01  1.3931e-03  1.0295e-03  7.8370e-04  0:01:54 1636
   365  1.3968e-03  5.7454e-04  3.9140e-04  4.2988e-01  1.3772e-03  1.0222e-03  7.8402e-04  0:01:31 1635
   366  1.3808e-03  5.6027e-04  3.7354e-04  4.3017e-01  1.3617e-03  1.0148e-03  7.7852e-04  0:01:13 1634
   367  1.3657e-03  5.4674e-04  3.5681e-04  4.3031e-01  1.3470e-03  1.0074e-03  7.7370e-04  0:00:58 1633
   368  1.3519e-03  5.3409e-04  3.4124e-04  4.3030e-01  1.3337e-03  1.0001e-03  7.6743e-04  0:00:46 1632
   369  1.3393e-03  5.2229e-04  3.2682e-04  4.3018e-01  1.3216e-03  9.9285e-04  7.5781e-04  0:00:37 1631
   370  1.3280e-03  5.1129e-04  3.1360e-04  4.2993e-01  1.3108e-03  9.8567e-04  7.4724e-04  0:00:30 1630
   371  1.3178e-03  5.0106e-04  3.0166e-04  4.2954e-01  1.3012e-03  9.7844e-04  7.4517e-04  0:00:24 1629
   372  1.3084e-03  4.9157e-04  2.9099e-04  4.2900e-01  1.2923e-03  9.7127e-04  7.4894e-04  0:05:45 1628
   373  1.2994e-03  4.8278e-04  2.8157e-04  4.2832e-01  1.2839e-03  9.6446e-04  7.5688e-04  0:04:35 1627
   374  1.2912e-03  4.7475e-04  2.7325e-04  4.2747e-01  1.2762e-03  9.5786e-04  7.6696e-04  0:03:40 1626

  iter  continuity  x-velocity  y-velocity  z-velocity      energy           k       omega     time/iter
   375  1.2836e-03  4.6739e-04  2.6602e-04  4.2644e-01  1.2691e-03  9.5167e-04  7.5210e-04  0:02:56 1625
   376  1.2765e-03  4.6068e-04  2.5975e-04  4.2522e-01  1.2624e-03  9.4518e-04  7.4356e-04  0:02:21 1624
   377  1.2700e-03  4.5487e-04  2.5409e-04  4.2380e-01  1.2564e-03  9.3864e-04  7.3869e-04  0:01:53 1623
   378  1.2641e-03  4.4964e-04  2.4930e-04  4.2211e-01  1.2508e-03  9.3233e-04  7.4063e-04  0:01:30 1622
   379  1.2586e-03  4.4482e-04  2.4534e-04  4.2014e-01  1.2457e-03  9.2623e-04  7.4220e-04  0:01:12 1621
   380  1.2534e-03  4.4022e-04  2.4177e-04  4.1797e-01  1.2407e-03  9.2056e-04  7.4140e-04  0:00:58 1620
   381  1.2481e-03  4.3608e-04  2.3837e-04  4.1556e-01  1.2356e-03  9.1619e-04  7.4145e-04  0:00:46 1619
   382  1.2426e-03  4.3242e-04  2.3507e-04  4.1290e-01  1.2303e-03  9.1270e-04  7.4968e-04  0:00:37 1618
   383  1.2370e-03  4.2917e-04  2.3179e-04  4.0995e-01  1.2248e-03  9.0972e-04  7.5244e-04  0:00:29 1617
   384  1.2311e-03  4.2636e-04  2.2847e-04  4.0675e-01  1.2190e-03  9.0705e-04  7.5470e-04  0:00:24 1616
   385  1.2249e-03  4.2382e-04  2.2478e-04  4.0329e-01  1.2128e-03  9.0461e-04  7.4876e-04  0:00:19 1615

  iter  continuity  x-velocity  y-velocity  z-velocity      energy           k       omega     time/iter
   386  1.2181e-03  4.2148e-04  2.2036e-04  3.9957e-01  1.2060e-03  9.0244e-04  7.4646e-04  0:05:38 1614
   387  1.2110e-03  4.1936e-04  2.1634e-04  3.9560e-01  1.1988e-03  9.0054e-04  7.4667e-04  0:04:30 1613
   388  1.2034e-03  4.1771e-04  2.1253e-04  3.9139e-01  1.1911e-03  9.0032e-04  7.3280e-04  0:03:36 1612
   389  1.1954e-03  4.1645e-04  2.0875e-04  3.8694e-01  1.1831e-03  9.0002e-04  7.2766e-04  0:02:53 1611
   390  1.1870e-03  4.1555e-04  2.0491e-04  3.8232e-01  1.1746e-03  8.9987e-04  7.2152e-04  0:02:18 1610
   391  1.1781e-03  4.1495e-04  2.0120e-04  3.7770e-01  1.1656e-03  8.9990e-04  7.1740e-04  0:01:50 1609
   392  1.1688e-03  4.1469e-04  1.9772e-04  3.7275e-01  1.1562e-03  9.0010e-04  7.1971e-04  0:01:28 1608
   393  1.1593e-03  4.1478e-04  1.9452e-04  3.6747e-01  1.1465e-03  9.0065e-04  7.1439e-04  0:01:11 1607
   394  1.1495e-03  4.1525e-04  1.9174e-04  3.6222e-01  1.1367e-03  9.0178e-04  7.1223e-04  0:00:56 1606
   395  1.1397e-03  4.1607e-04  1.8945e-04  3.5685e-01  1.1268e-03  9.0424e-04  7.1003e-04  0:00:45 1605
   396  1.1300e-03  4.1736e-04  1.8787e-04  3.5135e-01  1.1170e-03  9.0689e-04  7.0757e-04  0:00:36 1604

  iter  continuity  x-velocity  y-velocity  z-velocity      energy           k       omega     time/iter
   397  1.1204e-03  4.1914e-04  1.8708e-04  3.4575e-01  1.1074e-03  9.0938e-04  7.0652e-04  0:00:29 1603
   398  1.1110e-03  4.2141e-04  1.8716e-04  3.4003e-01  1.0980e-03  9.1175e-04  7.0353e-04  0:00:23 1602
   399  1.1020e-03  4.2416e-04  1.8820e-04  3.3421e-01  1.0890e-03  9.1391e-04  7.0050e-04  0:05:39 1601
   400  1.0933e-03  4.2735e-04  1.9024e-04  3.2829e-01  1.0804e-03  9.1597e-04  7.0326e-04  0:04:31 1600
   401  1.0850e-03  4.3099e-04  1.9326e-04  3.2230e-01  1.0722e-03  9.1873e-04  6.9850e-04  0:03:36 1599
   402  1.0772e-03  4.3501e-04  1.9723e-04  3.1623e-01  1.0646e-03  9.2196e-04  6.8484e-04  0:02:53 1598
   403  1.0702e-03  4.3940e-04  2.0207e-04  3.1003e-01  1.0578e-03  9.2491e-04  6.7562e-04  0:02:18 1597
   404  1.0635e-03  4.4404e-04  2.0771e-04  3.0396e-01  1.0513e-03  9.2762e-04  6.7385e-04  0:01:51 1596
   405  1.0571e-03  4.4894e-04  2.1401e-04  2.9792e-01  1.0452e-03  9.3012e-04  6.7114e-04  0:01:28 1595
   406  1.0510e-03  4.5402e-04  2.2087e-04  2.9187e-01  1.0394e-03  9.3247e-04  6.7070e-04  0:01:11 1594
   407  1.0452e-03  4.5924e-04  2.2817e-04  2.8590e-01  1.0340e-03  9.3440e-04  6.6839e-04  0:00:57 1593

  iter  continuity  x-velocity  y-velocity  z-velocity      energy           k       omega     time/iter
   408  1.0398e-03  4.6455e-04  2.3578e-04  2.7997e-01  1.0289e-03  9.3579e-04  6.6382e-04  0:00:45 1592
   409  1.0346e-03  4.6988e-04  2.4358e-04  2.7411e-01  1.0241e-03  9.3660e-04  6.6093e-04  0:00:36 1591
   410  1.0296e-03  4.7518e-04  2.5146e-04  2.6831e-01  1.0195e-03  9.3694e-04  6.5879e-04  0:00:29 1590
   411  1.0246e-03  4.8040e-04  2.5930e-04  2.6255e-01  1.0150e-03  9.3653e-04  6.5838e-04  0:00:23 1589
   412  1.0198e-03  4.8544e-04  2.6703e-04  2.5684e-01  1.0106e-03  9.3519e-04  6.5819e-04  0:05:36 1588
   413  1.0148e-03  4.9029e-04  2.7453e-04  2.5117e-01  1.0060e-03  9.3301e-04  6.5877e-04  0:04:29 1587
   414  1.0099e-03  4.9491e-04  2.8173e-04  2.4553e-01  1.0016e-03  9.2992e-04  6.5929e-04  0:03:35 1586
   415  1.0044e-03  4.9922e-04  2.8857e-04  2.3988e-01  9.9654e-04  9.2592e-04  6.5945e-04  0:02:52 1585
   416  9.9852e-04  5.0318e-04  2.9499e-04  2.3426e-01  9.9105e-04  9.2094e-04  6.5904e-04  0:02:17 1584
   417  9.9225e-04  5.0674e-04  3.0095e-04  2.2857e-01  9.8518e-04  9.1499e-04  6.5564e-04  0:01:50 1583
   418  9.8556e-04  5.0988e-04  3.0637e-04  2.2307e-01  9.7887e-04  9.0801e-04  6.5196e-04  0:01:28 1582

  iter  continuity  x-velocity  y-velocity  z-velocity      energy           k       omega     time/iter
   419  9.7844e-04  5.1255e-04  3.1124e-04  2.1806e-01  9.7210e-04  8.9995e-04  6.4792e-04  0:01:10 1581
   420  9.7081e-04  5.1473e-04  3.1554e-04  2.1279e-01  9.6480e-04  8.9098e-04  6.4783e-04  0:00:56 1580
   421  9.6264e-04  5.1640e-04  3.1923e-04  2.0747e-01  9.5692e-04  8.8108e-04  6.4881e-04  0:00:45 1579
   422  9.5391e-04  5.1755e-04  3.2231e-04  2.0221e-01  9.4845e-04  8.7084e-04  6.4994e-04  0:00:36 1578
   423  9.4465e-04  5.1816e-04  3.2476e-04  1.9705e-01  9.3942e-04  8.5976e-04  6.4912e-04  0:00:29 1577
   424  9.3554e-04  5.1827e-04  3.2658e-04  1.9200e-01  9.3049e-04  8.4794e-04  6.4748e-04  0:00:23 1576
   425  9.2519e-04  5.1775e-04  3.2777e-04  1.8706e-01  9.2029e-04  8.3560e-04  6.4858e-04  0:05:33 1575
   426  9.1446e-04  5.1668e-04  3.2832e-04  1.8222e-01  9.0967e-04  8.2307e-04  6.5101e-04  0:04:26 1574
   427  9.0360e-04  5.1509e-04  3.2827e-04  1.7750e-01  8.9888e-04  8.0992e-04  6.5253e-04  0:03:33 1573
   428  8.9265e-04  5.1299e-04  3.2763e-04  1.7290e-01  8.8796e-04  7.9631e-04  6.4937e-04  0:02:50 1572
   429  8.8168e-04  5.1036e-04  3.2641e-04  1.6843e-01  8.7697e-04  7.8221e-04  6.5361e-04  0:02:16 1571

  iter  continuity  x-velocity  y-velocity  z-velocity      energy           k       omega     time/iter
   430  8.7077e-04  5.0723e-04  3.2464e-04  1.6409e-01  8.6601e-04  7.6821e-04  6.5422e-04  0:01:49 1570
   431  8.6002e-04  5.0364e-04  3.2234e-04  1.5983e-01  8.5517e-04  7.5464e-04  6.5258e-04  0:01:27 1569
   432  8.4951e-04  4.9958e-04  3.1953e-04  1.5570e-01  8.4453e-04  7.4123e-04  6.5342e-04  0:01:10 1568
   433  8.3927e-04  4.9509e-04  3.1624e-04  1.5173e-01  8.3413e-04  7.2795e-04  6.4852e-04  0:00:56 1567
   434  8.2944e-04  4.9018e-04  3.1251e-04  1.4794e-01  8.2411e-04  7.1478e-04  6.4937e-04  0:00:44 1566
   435  8.2014e-04  4.8491e-04  3.0837e-04  1.4433e-01  8.1459e-04  7.0215e-04  6.4698e-04  0:00:36 1565
   436  8.1146e-04  4.7931e-04  3.0384e-04  1.4090e-01  8.0567e-04  6.9054e-04  6.4459e-04  0:05:41 1564
   437  8.0339e-04  4.7341e-04  2.9898e-04  1.3766e-01  7.9734e-04  6.8022e-04  6.4197e-04  0:04:33 1563
   438  7.9603e-04  4.6726e-04  2.9381e-04  1.3459e-01  7.8971e-04  6.7074e-04  6.3391e-04  0:03:38 1562
   439  7.8946e-04  4.6091e-04  2.8836e-04  1.3169e-01  7.8287e-04  6.6192e-04  6.2439e-04  0:02:54 1561
   440  7.8372e-04  4.5438e-04  2.8265e-04  1.2894e-01  7.7684e-04  6.5336e-04  6.1506e-04  0:02:19 1560

  iter  continuity  x-velocity  y-velocity  z-velocity      energy           k       omega     time/iter
   441  7.7878e-04  4.4763e-04  2.7676e-04  1.2634e-01  7.7163e-04  6.4523e-04  6.0915e-04  0:01:51 1559
   442  7.7470e-04  4.4080e-04  2.7080e-04  1.2388e-01  7.6726e-04  6.3775e-04  6.0515e-04  0:01:29 1558
   443  7.7141e-04  4.3396e-04  2.6468e-04  1.2155e-01  7.6371e-04  6.3084e-04  5.9841e-04  0:01:11 1557
   444  7.6885e-04  4.2710e-04  2.5843e-04  1.1933e-01  7.6090e-04  6.2450e-04  5.8308e-04  0:00:57 1556
   445  7.6673e-04  4.2021e-04  2.5208e-04  1.1724e-01  7.5855e-04  6.1909e-04  5.6961e-04  0:00:46 1555
   446  7.6498e-04  4.1333e-04  2.4566e-04  1.1525e-01  7.5658e-04  6.1433e-04  5.6314e-04  0:00:36 1554
   447  7.6356e-04  4.0650e-04  2.3920e-04  1.1332e-01  7.5497e-04  6.0983e-04  5.5828e-04  0:00:29 1553
   448  7.6236e-04  3.9944e-04  2.3306e-04  1.1152e-01  7.5361e-04  6.0598e-04  5.5478e-04  0:00:23 1552
   449  7.6142e-04  3.9275e-04  2.2676e-04  1.0970e-01  7.5253e-04  6.0300e-04  5.5068e-04  0:05:29 1551
   450  7.6061e-04  3.8628e-04  2.2030e-04  1.0789e-01  7.5162e-04  6.0056e-04  5.4510e-04  0:04:23 1550
   451  7.5984e-04  3.7997e-04  2.1385e-04  1.0608e-01  7.5075e-04  5.9890e-04  5.3414e-04  0:03:30 1549

  iter  continuity  x-velocity  y-velocity  z-velocity      energy           k       omega     time/iter
   452  7.5897e-04  3.7380e-04  2.0748e-04  1.0429e-01  7.4981e-04  5.9753e-04  5.2436e-04  0:02:48 1548
   453  7.5782e-04  3.6777e-04  2.0122e-04  1.0251e-01  7.4862e-04  5.9634e-04  5.1633e-04  0:02:14 1547
   454  7.5635e-04  3.6192e-04  1.9506e-04  1.0073e-01  7.4713e-04  5.9528e-04  5.0982e-04  0:01:47 1546
   455  7.5452e-04  3.5625e-04  1.8902e-04  9.8967e-02  7.4530e-04  5.9398e-04  5.0314e-04  0:01:26 1545
   456  7.5228e-04  3.5079e-04  1.8310e-04  9.7209e-02  7.4308e-04  5.9273e-04  4.9729e-04  0:01:09 1544
   457  7.4957e-04  3.4552e-04  1.7731e-04  9.5458e-02  7.4041e-04  5.9163e-04  4.9047e-04  0:00:55 1543
   458  7.4635e-04  3.4047e-04  1.7166e-04  9.3710e-02  7.3725e-04  5.9027e-04  4.8328e-04  0:00:44 1542
   459  7.4259e-04  3.3562e-04  1.6614e-04  9.1954e-02  7.3355e-04  5.8879e-04  4.7726e-04  0:00:35 1541
   460  7.3823e-04  3.3098e-04  1.6080e-04  9.0272e-02  7.2928e-04  5.8720e-04  4.7101e-04  0:00:28 1540
   461  7.3324e-04  3.2646e-04  1.5574e-04  8.8602e-02  7.2439e-04  5.8543e-04  4.6618e-04  0:00:22 1539
   462  7.2756e-04  3.2219e-04  1.5072e-04  8.6948e-02  7.1884e-04  5.8350e-04  4.6176e-04  0:05:26 1538

  iter  continuity  x-velocity  y-velocity  z-velocity      energy           k       omega     time/iter
   463  7.2121e-04  3.1814e-04  1.4580e-04  8.5272e-02  7.1261e-04  5.8127e-04  4.5742e-04  0:04:20 1537
   464  7.1421e-04  3.1431e-04  1.4103e-04  8.3668e-02  7.0575e-04  5.7879e-04  4.5192e-04  0:03:28 1536
   465  7.0664e-04  3.1067e-04  1.3645e-04  8.2163e-02  6.9833e-04  5.7601e-04  4.4663e-04  0:02:46 1535
   466  6.9850e-04  3.0721e-04  1.3208e-04  8.0765e-02  6.9035e-04  5.7294e-04  4.4337e-04  0:02:13 1534
   467  6.8986e-04  3.0392e-04  1.2790e-04  7.9499e-02  6.8188e-04  5.6973e-04  4.3781e-04  0:01:46 1533
   468  6.8083e-04  3.0079e-04  1.2393e-04  7.8409e-02  6.7302e-04  5.6641e-04  4.3269e-04  0:01:25 1532
   469  6.7150e-04  2.9784e-04  1.2016e-04  7.7545e-02  6.6387e-04  5.6300e-04  4.3003e-04  0:01:08 1531
   470  6.6191e-04  2.9504e-04  1.1661e-04  7.6819e-02  6.5446e-04  5.5944e-04  4.2963e-04  0:00:54 1530
   471  6.5214e-04  2.9242e-04  1.1327e-04  7.6081e-02  6.4489e-04  5.5569e-04  4.3059e-04  0:00:43 1529
   472  6.4233e-04  2.8997e-04  1.1014e-04  7.5434e-02  6.3528e-04  5.5162e-04  4.2692e-04  0:00:35 1528
   473  6.3260e-04  2.8769e-04  1.0722e-04  7.4970e-02  6.2574e-04  5.4735e-04  4.2495e-04  0:00:28 1527

  iter  continuity  x-velocity  y-velocity  z-velocity      energy           k       omega     time/iter
   474  6.2305e-04  2.8559e-04  1.0448e-04  7.4703e-02  6.1639e-04  5.4297e-04  4.2504e-04  0:00:22 1526
   475  6.1374e-04  2.8366e-04  1.0200e-04  7.4618e-02  6.0728e-04  5.3849e-04  4.2887e-04  0:05:23 1525
   476  6.0951e-04  2.8223e-04  1.0047e-04  7.4696e-02  6.0321e-04  5.3392e-04  4.2057e-04  0:04:18 1524
   477  5.9838e-04  2.8049e-04  9.7734e-05  7.4845e-02  5.9229e-04  5.2927e-04  4.1878e-04  0:03:26 1523
   478  5.8816e-04  2.7897e-04  9.6087e-05  7.5126e-02  5.8228e-04  5.2455e-04  4.2008e-04  0:02:45 1522
   479  5.8080e-04  2.7778e-04  9.4407e-05  7.5521e-02  5.7511e-04  5.1989e-04  4.2123e-04  0:02:12 1521
   480  5.7355e-04  2.7680e-04  9.2886e-05  7.5977e-02  5.6804e-04  5.1534e-04  4.2201e-04  0:01:45 1520
   481  5.6704e-04  2.7614e-04  9.2342e-05  7.6469e-02  5.6170e-04  5.1084e-04  4.2114e-04  0:01:24 1519
   482  5.6151e-04  2.7577e-04  9.1858e-05  7.6901e-02  5.5633e-04  5.0651e-04  4.2491e-04  0:01:07 1518
   483  5.5663e-04  2.7555e-04  9.1117e-05  7.7305e-02  5.5160e-04  5.0236e-04  4.3173e-04  0:00:54 1517
   484  5.5242e-04  2.7549e-04  9.0379e-05  7.7691e-02  5.4753e-04  4.9858e-04  4.2115e-04  0:00:43 1516

  iter  continuity  x-velocity  y-velocity  z-velocity      energy           k       omega     time/iter
   485  5.4890e-04  2.7560e-04  8.9748e-05  7.8025e-02  5.4413e-04  4.9492e-04  4.1039e-04  0:00:34 1515
   486  5.4611e-04  2.7586e-04  8.9243e-05  7.8316e-02  5.4147e-04  4.9174e-04  4.0491e-04  0:00:28 1514
   487  5.4400e-04  2.7629e-04  8.8823e-05  7.8576e-02  5.3946e-04  4.8884e-04  4.0247e-04  0:00:22 1513
   488  5.4248e-04  2.7685e-04  8.8493e-05  7.8793e-02  5.3804e-04  4.8612e-04  4.0004e-04  0:05:20 1512
   489  5.4147e-04  2.7753e-04  8.8222e-05  7.8930e-02  5.3710e-04  4.8344e-04  3.9866e-04  0:04:16 1511
   490  5.4091e-04  2.7833e-04  8.7986e-05  7.8935e-02  5.3660e-04  4.8102e-04  3.9617e-04  0:03:25 1510
   491  5.4070e-04  2.7922e-04  8.7771e-05  7.8742e-02  5.3644e-04  4.7904e-04  3.9308e-04  0:02:44 1509
   492  5.4077e-04  2.8020e-04  8.7568e-05  7.8354e-02  5.3655e-04  4.7745e-04  3.9128e-04  0:02:11 1508
   493  5.4101e-04  2.8124e-04  8.7367e-05  7.7826e-02  5.3682e-04  4.7624e-04  3.9095e-04  0:01:45 1507
   494  5.4136e-04  2.8235e-04  8.7157e-05  7.7117e-02  5.3717e-04  4.7533e-04  3.9188e-04  0:01:24 1506
   495  5.4176e-04  2.8368e-04  8.6938e-05  7.6266e-02  5.3758e-04  4.7478e-04  3.9336e-04  0:01:07 1505

  iter  continuity  x-velocity  y-velocity  z-velocity      energy           k       omega     time/iter
   496  5.4206e-04  2.8491e-04  8.6684e-05  7.5273e-02  5.3788e-04  4.7458e-04  3.9232e-04  0:00:53 1504
   497  5.4220e-04  2.8605e-04  8.6391e-05  7.4128e-02  5.3799e-04  4.7470e-04  3.9004e-04  0:00:43 1503
   498  5.4211e-04  2.8714e-04  8.6073e-05  7.2884e-02  5.3788e-04  4.7537e-04  3.8827e-04  0:00:34 1502
   499  5.4178e-04  2.8820e-04  8.5728e-05  7.1539e-02  5.3752e-04  4.7647e-04  3.8949e-04  0:00:27 1501
   500  5.4112e-04  2.8921e-04  8.5358e-05  7.0110e-02  5.3682e-04  4.7799e-04  3.9181e-04  0:00:22 1500
   501  5.4005e-04  2.9018e-04  8.4973e-05  6.8568e-02  5.3571e-04  4.7979e-04  3.9190e-04  0:05:17 1499
   502  5.3853e-04  2.9108e-04  8.4571e-05  6.6950e-02  5.3414e-04  4.8184e-04  3.9265e-04  0:04:14 1498
   503  5.3659e-04  2.9189e-04  8.4190e-05  6.5301e-02  5.3215e-04  4.8420e-04  3.8742e-04  0:03:23 1497
   504  5.3408e-04  2.9261e-04  8.3786e-05  6.3630e-02  5.2958e-04  4.8654e-04  3.8447e-04  0:02:42 1496
   505  5.3104e-04  2.9322e-04  8.3420e-05  6.1933e-02  5.2649e-04  4.8868e-04  3.8440e-04  0:02:10 1495
   506  5.2750e-04  2.9373e-04  8.3099e-05  6.0304e-02  5.2289e-04  4.9057e-04  3.8554e-04  0:01:44 1494

  iter  continuity  x-velocity  y-velocity  z-velocity      energy           k       omega     time/iter
   507  5.2343e-04  2.9414e-04  8.2840e-05  5.8749e-02  5.1876e-04  4.9214e-04  3.8421e-04  0:01:23 1493
   508  5.1883e-04  2.9443e-04  8.2662e-05  5.7274e-02  5.1411e-04  4.9345e-04  3.7816e-04  0:01:06 1492
   509  5.1372e-04  2.9460e-04  8.2585e-05  5.5927e-02  5.0894e-04  4.9447e-04  3.7430e-04  0:00:53 1491
   510  5.0807e-04  2.9464e-04  8.2628e-05  5.4694e-02  5.0323e-04  4.9523e-04  3.7222e-04  0:00:42 1490
   511  5.0193e-04  2.9455e-04  8.2817e-05  5.3580e-02  4.9704e-04  4.9556e-04  3.7186e-04  0:00:34 1489
   512  4.9537e-04  2.9435e-04  8.3167e-05  5.2616e-02  4.9043e-04  4.9556e-04  3.7296e-04  0:00:27 1488
   513  4.8840e-04  2.9402e-04  8.3691e-05  5.1772e-02  4.8341e-04  4.9522e-04  3.7418e-04  0:00:22 1487
   514  4.8107e-04  2.9358e-04  8.4406e-05  5.1087e-02  4.7604e-04  4.9459e-04  3.7433e-04  0:05:14 1486
   515  4.7343e-04  2.9304e-04  8.5322e-05  5.0573e-02  4.6837e-04  4.9376e-04  3.7242e-04  0:04:11 1485
   516  4.6550e-04  2.9239e-04  8.6443e-05  5.0173e-02  4.6042e-04  4.9256e-04  3.7312e-04  0:03:21 1484
   517  4.5733e-04  2.9164e-04  8.7771e-05  4.9873e-02  4.5223e-04  4.9100e-04  3.7375e-04  0:02:41 1483

  iter  continuity  x-velocity  y-velocity  z-velocity      energy           k       omega     time/iter
   518  4.4898e-04  2.9080e-04  8.9305e-05  4.9718e-02  4.4388e-04  4.8906e-04  3.7389e-04  0:02:08 1482
   519  4.4052e-04  2.8988e-04  9.1036e-05  4.9660e-02  4.3542e-04  4.8686e-04  3.7373e-04  0:01:43 1481
   520  4.3200e-04  2.8888e-04  9.2955e-05  4.9677e-02  4.2692e-04  4.8437e-04  3.7268e-04  0:01:22 1480
   521  4.2349e-04  2.8780e-04  9.5046e-05  4.9761e-02  4.1844e-04  4.8156e-04  3.7360e-04  0:01:06 1479
   522  4.1507e-04  2.8665e-04  9.7292e-05  4.9890e-02  4.1006e-04  4.7840e-04  3.7362e-04  0:00:52 1478
   523  4.0678e-04  2.8544e-04  9.9672e-05  5.0026e-02  4.0183e-04  4.7489e-04  3.7395e-04  0:00:42 1477
   524  3.9871e-04  2.8418e-04  1.0217e-04  5.0139e-02  3.9383e-04  4.7111e-04  3.7426e-04  0:00:34 1476
   525  3.9091e-04  2.8287e-04  1.0475e-04  5.0215e-02  3.8611e-04  4.6706e-04  3.7051e-04  0:00:27 1475
   526  3.8344e-04  2.8150e-04  1.0739e-04  5.0237e-02  3.7875e-04  4.6267e-04  3.6883e-04  0:00:21 1474
   527  3.7637e-04  2.8009e-04  1.1008e-04  5.0194e-02  3.7179e-04  4.5789e-04  3.7003e-04  0:00:17 1473
   528  3.6974e-04  2.7862e-04  1.1277e-04  5.0070e-02  3.6529e-04  4.5274e-04  3.6994e-04  0:05:08 1472

  iter  continuity  x-velocity  y-velocity  z-velocity      energy           k       omega     time/iter
   529  3.6359e-04  2.7712e-04  1.1546e-04  4.9844e-02  3.5928e-04  4.4757e-04  3.6930e-04  0:04:06 1471
   530  3.5795e-04  2.7559e-04  1.1812e-04  4.9489e-02  3.5380e-04  4.4225e-04  3.6950e-04  0:03:17 1470
   531  3.5285e-04  2.7402e-04  1.2072e-04  4.9000e-02  3.4887e-04  4.3680e-04  3.7007e-04  0:02:37 1469
   532  3.4831e-04  2.7241e-04  1.2323e-04  4.8376e-02  3.4451e-04  4.3122e-04  3.6967e-04  0:02:06 1468
   533  3.4433e-04  2.7077e-04  1.2564e-04  4.7646e-02  3.4071e-04  4.2565e-04  3.6594e-04  0:01:41 1467
   534  3.4090e-04  2.6910e-04  1.2792e-04  4.6819e-02  3.3747e-04  4.2007e-04  3.6245e-04  0:01:20 1466
   535  3.3801e-04  2.6740e-04  1.3005e-04  4.5915e-02  3.3476e-04  4.1444e-04  3.6080e-04  0:01:04 1465
   536  3.3563e-04  2.6566e-04  1.3201e-04  4.4949e-02  3.3257e-04  4.0872e-04  3.5849e-04  0:00:51 1464
   537  3.3372e-04  2.6388e-04  1.3379e-04  4.3927e-02  3.3084e-04  4.0301e-04  3.5574e-04  0:00:41 1463
   538  3.3224e-04  2.6207e-04  1.3538e-04  4.2868e-02  3.2953e-04  3.9737e-04  3.5312e-04  0:00:33 1462
   539  3.3113e-04  2.6021e-04  1.3675e-04  4.1806e-02  3.2859e-04  3.9189e-04  3.5138e-04  0:00:26 1461

  iter  continuity  x-velocity  y-velocity  z-velocity      energy           k       omega     time/iter
   540  3.3035e-04  2.5830e-04  1.3789e-04  4.0768e-02  3.2797e-04  3.8658e-04  3.5010e-04  0:00:21 1460
   541  3.2984e-04  2.5635e-04  1.3879e-04  3.9797e-02  3.2759e-04  3.8156e-04  3.4677e-04  0:05:09 1459
   542  3.2954e-04  2.5435e-04  1.3944e-04  3.8895e-02  3.2741e-04  3.7673e-04  3.4562e-04  0:04:07 1458
   543  3.2938e-04  2.5229e-04  1.3984e-04  3.8165e-02  3.2737e-04  3.7217e-04  3.4429e-04  0:03:17 1457
   544  3.2931e-04  2.5017e-04  1.3997e-04  3.7623e-02  3.2739e-04  3.6822e-04  3.4440e-04  0:02:38 1456
   545  3.2928e-04  2.4800e-04  1.3984e-04  3.7291e-02  3.2743e-04  3.6480e-04  3.4476e-04  0:02:06 1455
   546  3.2922e-04  2.4577e-04  1.3944e-04  3.7175e-02  3.2743e-04  3.6187e-04  3.4666e-04  0:01:41 1454
   547  3.2909e-04  2.4348e-04  1.3877e-04  3.7349e-02  3.2734e-04  3.5945e-04  3.4279e-04  0:01:21 1453
   548  3.2885e-04  2.4114e-04  1.3783e-04  3.7834e-02  3.2712e-04  3.5747e-04  3.3391e-04  0:01:04 1452
   549  3.2844e-04  2.3875e-04  1.3663e-04  3.8556e-02  3.2673e-04  3.5578e-04  3.3231e-04  0:00:51 1451
   550  3.2785e-04  2.3632e-04  1.3518e-04  3.9507e-02  3.2613e-04  3.5434e-04  3.3344e-04  0:00:41 1450

  iter  continuity  x-velocity  y-velocity  z-velocity      energy           k       omega     time/iter
   551  3.2706e-04  2.3384e-04  1.3346e-04  4.0736e-02  3.2532e-04  3.5327e-04  3.3184e-04  0:00:33 1449
   552  3.2603e-04  2.3134e-04  1.3151e-04  4.2135e-02  3.2425e-04  3.5249e-04  3.2849e-04  0:00:26 1448
   553  3.2474e-04  2.2881e-04  1.2932e-04  4.3672e-02  3.2292e-04  3.5188e-04  3.2550e-04  0:00:21 1447
   554  3.2320e-04  2.2625e-04  1.2691e-04  4.5341e-02  3.2132e-04  3.5156e-04  3.2096e-04  0:05:06 1446
   555  3.2139e-04  2.2369e-04  1.2430e-04  4.7123e-02  3.1945e-04  3.5141e-04  3.1646e-04  0:04:05 1445
   556  3.1932e-04  2.2112e-04  1.2149e-04  4.8956e-02  3.1731e-04  3.5150e-04  3.1164e-04  0:03:16 1444
   557  3.1700e-04  2.1856e-04  1.1852e-04  5.0817e-02  3.1491e-04  3.5173e-04  3.0834e-04  0:02:36 1443
   558  3.1443e-04  2.1598e-04  1.1537e-04  5.2672e-02  3.1224e-04  3.5204e-04  3.0599e-04  0:02:05 1442
   559  3.1162e-04  2.1344e-04  1.1209e-04  5.4492e-02  3.0935e-04  3.5255e-04  3.0354e-04  0:01:40 1441
   560  3.0861e-04  2.1098e-04  1.0871e-04  5.6249e-02  3.0625e-04  3.5318e-04  3.0099e-04  0:01:20 1440
   561  3.0542e-04  2.0857e-04  1.0526e-04  5.7936e-02  3.0297e-04  3.5388e-04  2.9898e-04  0:01:04 1439

  iter  continuity  x-velocity  y-velocity  z-velocity      energy           k       omega     time/iter
   562  3.0208e-04  2.0622e-04  1.0170e-04  5.9532e-02  2.9954e-04  3.5455e-04  2.9715e-04  0:00:51 1438
   563  2.9863e-04  2.0394e-04  9.8130e-05  6.1023e-02  2.9600e-04  3.5518e-04  2.9362e-04  0:00:41 1437
   564  2.9509e-04  2.0174e-04  9.4619e-05  6.2398e-02  2.9239e-04  3.5570e-04  2.9109e-04  0:00:33 1436
   565  2.9151e-04  1.9963e-04  9.1174e-05  6.3649e-02  2.8873e-04  3.5618e-04  2.8896e-04  0:00:26 1435
   566  2.9411e-04  1.9789e-04  8.8433e-05  6.4752e-02  2.9124e-04  3.5657e-04  2.8634e-04  0:00:21 1434
   567  2.8763e-04  1.9582e-04  8.4587e-05  6.5699e-02  2.8471e-04  3.5680e-04  2.8314e-04  0:05:03 1433
   568  2.8100e-04  1.9394e-04  8.1606e-05  6.6501e-02  2.7804e-04  3.5684e-04  2.7867e-04  0:04:02 1432
   569  2.7715e-04  1.9230e-04  7.8692e-05  6.7156e-02  2.7417e-04  3.5673e-04  2.7357e-04  0:03:14 1431
   570  2.7408e-04  1.9082e-04  7.6005e-05  6.7663e-02  2.7107e-04  3.5644e-04  2.6931e-04  0:02:35 1430
   571  2.7108e-04  1.8948e-04  7.3608e-05  6.8018e-02  2.6805e-04  3.5597e-04  2.6645e-04  0:02:04 1429
   572  2.6822e-04  1.8827e-04  7.1515e-05  6.8225e-02  2.6519e-04  3.5543e-04  2.6387e-04  0:01:39 1428

  iter  continuity  x-velocity  y-velocity  z-velocity      energy           k       omega     time/iter
   573  2.6556e-04  1.8720e-04  6.9740e-05  6.8278e-02  2.6255e-04  3.5490e-04  2.6088e-04  0:01:19 1427
   574  2.6316e-04  1.8627e-04  6.8296e-05  6.8172e-02  2.6017e-04  3.5428e-04  2.5911e-04  0:01:03 1426
   575  2.6104e-04  1.8547e-04  6.7123e-05  6.7910e-02  2.5809e-04  3.5352e-04  2.5732e-04  0:00:51 1425
   576  2.5919e-04  1.8483e-04  6.6288e-05  6.7498e-02  2.5629e-04  3.5260e-04  2.5260e-04  0:00:40 1424
   577  2.5761e-04  1.8434e-04  6.5786e-05  6.6943e-02  2.5477e-04  3.5156e-04  2.4986e-04  0:00:32 1423
   578  2.5629e-04  1.8398e-04  6.5594e-05  6.6253e-02  2.5353e-04  3.5047e-04  2.4874e-04  0:00:26 1422
   579  2.5523e-04  1.8373e-04  6.5675e-05  6.5438e-02  2.5256e-04  3.4944e-04  2.4790e-04  0:00:21 1421
   580  2.5443e-04  1.8360e-04  6.5987e-05  6.4503e-02  2.5184e-04  3.4833e-04  2.4661e-04  0:05:01 1420
   581  2.5385e-04  1.8357e-04  6.6484e-05  6.3448e-02  2.5135e-04  3.4716e-04  2.4547e-04  0:04:00 1419
   582  2.5349e-04  1.8364e-04  6.7126e-05  6.2289e-02  2.5109e-04  3.4594e-04  2.4465e-04  0:03:12 1418
   583  2.5331e-04  1.8379e-04  6.7872e-05  6.1038e-02  2.5101e-04  3.4465e-04  2.4230e-04  0:02:34 1417

  iter  continuity  x-velocity  y-velocity  z-velocity      energy           k       omega     time/iter
   584  2.5328e-04  1.8401e-04  6.8683e-05  5.9694e-02  2.5108e-04  3.4331e-04  2.3969e-04  0:02:03 1416
   585  2.5337e-04  1.8429e-04  6.9525e-05  5.8277e-02  2.5127e-04  3.4188e-04  2.3884e-04  0:01:38 1415
   586  2.5355e-04  1.8461e-04  7.0361e-05  5.6792e-02  2.5153e-04  3.4037e-04  2.3937e-04  0:01:18 1414
   587  2.5377e-04  1.8498e-04  7.1162e-05  5.5253e-02  2.5185e-04  3.3883e-04  2.4177e-04  0:01:03 1413
   588  2.5402e-04  1.8537e-04  7.1901e-05  5.3667e-02  2.5218e-04  3.3731e-04  2.4175e-04  0:00:50 1412
   589  2.5425e-04  1.8577e-04  7.2556e-05  5.2047e-02  2.5249e-04  3.3578e-04  2.3805e-04  0:00:40 1411
   590  2.5444e-04  1.8618e-04  7.3108e-05  5.0393e-02  2.5275e-04  3.3420e-04  2.3546e-04  0:00:32 1410
   591  2.5456e-04  1.8659e-04  7.3541e-05  4.8724e-02  2.5292e-04  3.3250e-04  2.3642e-04  0:00:26 1409
   592  2.5457e-04  1.8698e-04  7.3843e-05  4.7043e-02  2.5299e-04  3.3072e-04  2.3694e-04  0:00:20 1408
   593  2.5446e-04  1.8735e-04  7.4004e-05  4.5359e-02  2.5292e-04  3.2889e-04  2.3729e-04  0:04:58 1407
   594  2.5420e-04  1.8769e-04  7.4020e-05  4.3680e-02  2.5270e-04  3.2702e-04  2.3727e-04  0:03:58 1406

  iter  continuity  x-velocity  y-velocity  z-velocity      energy           k       omega     time/iter
   595  2.5377e-04  1.8799e-04  7.3888e-05  4.2021e-02  2.5230e-04  3.2518e-04  2.3609e-04  0:03:10 1405
   596  2.5316e-04  1.8825e-04  7.3610e-05  4.0366e-02  2.5171e-04  3.2336e-04  2.3370e-04  0:02:32 1404
   597  2.5237e-04  1.8846e-04  7.3187e-05  3.8736e-02  2.5093e-04  3.2159e-04  2.3251e-04  0:02:02 1403
   598  2.5138e-04  1.8862e-04  7.2625e-05  3.7140e-02  2.4995e-04  3.1975e-04  2.3174e-04  0:01:37 1402
   599  2.5019e-04  1.8872e-04  7.1931e-05  3.5589e-02  2.4877e-04  3.1783e-04  2.3181e-04  0:01:18 1401
   600  2.4879e-04  1.8877e-04  7.1112e-05  3.4096e-02  2.4737e-04  3.1597e-04  2.3164e-04  0:01:02 1400
   601  2.4720e-04  1.8876e-04  7.0185e-05  3.2663e-02  2.4578e-04  3.1411e-04  2.3180e-04  0:00:50 1399
   602  2.4542e-04  1.8869e-04  6.9166e-05  3.1290e-02  2.4399e-04  3.1222e-04  2.3031e-04  0:00:40 1398
   603  2.4346e-04  1.8857e-04  6.8067e-05  2.9988e-02  2.4201e-04  3.1031e-04  2.2926e-04  0:00:32 1397
   604  2.4131e-04  1.8839e-04  6.6907e-05  2.8752e-02  2.3986e-04  3.0848e-04  2.2956e-04  0:00:25 1396
   605  2.3895e-04  1.8811e-04  6.5738e-05  2.7591e-02  2.3749e-04  3.0679e-04  2.3141e-04  0:00:20 1395

  iter  continuity  x-velocity  y-velocity  z-velocity      energy           k       omega     time/iter
   606  2.3647e-04  1.8783e-04  6.4574e-05  2.6499e-02  2.3499e-04  3.0524e-04  2.3209e-04  0:04:55 1394
   607  2.3386e-04  1.8750e-04  6.3343e-05  2.5481e-02  2.3237e-04  3.0377e-04  2.3124e-04  0:03:56 1393
   608  2.3110e-04  1.8711e-04  6.2114e-05  2.4539e-02  2.2960e-04  3.0225e-04  2.3009e-04  0:03:09 1392
   609  2.2820e-04  1.8667e-04  6.0927e-05  2.3673e-02  2.2669e-04  3.0088e-04  2.2994e-04  0:02:31 1391
   610  2.2518e-04  1.8618e-04  5.9805e-05  2.2882e-02  2.2367e-04  2.9953e-04  2.3063e-04  0:02:00 1390
   611  2.2205e-04  1.8565e-04  5.8766e-05  2.2166e-02  2.2055e-04  2.9825e-04  2.3026e-04  0:01:36 1389
   612  2.1884e-04  1.8508e-04  5.7829e-05  2.1525e-02  2.1735e-04  2.9702e-04  2.2843e-04  0:01:17 1388
   613  2.1556e-04  1.8447e-04  5.7012e-05  2.0961e-02  2.1408e-04  2.9576e-04  2.2696e-04  0:01:02 1387
   614  2.1223e-04  1.8382e-04  5.6329e-05  2.0469e-02  2.1077e-04  2.9449e-04  2.2640e-04  0:00:49 1386
   615  2.0886e-04  1.8314e-04  5.5794e-05  2.0044e-02  2.0742e-04  2.9319e-04  2.2646e-04  0:00:39 1385
   616  2.0546e-04  1.8243e-04  5.5416e-05  1.9688e-02  2.0406e-04  2.9187e-04  2.2681e-04  0:00:31 1384

  iter  continuity  x-velocity  y-velocity  z-velocity      energy           k       omega     time/iter
   617  2.0205e-04  1.8168e-04  5.5202e-05  1.9391e-02  2.0069e-04  2.9054e-04  2.2744e-04  0:00:25 1383
   618  1.9864e-04  1.8091e-04  5.5152e-05  1.9153e-02  1.9733e-04  2.8920e-04  2.2784e-04  0:00:20 1382
   619  1.9524e-04  1.8012e-04  5.5265e-05  1.8966e-02  1.9399e-04  2.8789e-04  2.2756e-04  0:00:16 1381
   620  1.9187e-04  1.7930e-04  5.5532e-05  1.8828e-02  1.9068e-04  2.8656e-04  2.2683e-04  0:04:49 1380
   621  1.8853e-04  1.7845e-04  5.5943e-05  1.8739e-02  1.8741e-04  2.8522e-04  2.2533e-04  0:03:51 1379
   622  1.8523e-04  1.7759e-04  5.6484e-05  1.8689e-02  1.8418e-04  2.8388e-04  2.2270e-04  0:03:05 1378
   623  1.8197e-04  1.7671e-04  5.7139e-05  1.8676e-02  1.8101e-04  2.8251e-04  2.2076e-04  0:02:28 1377
   624  1.7877e-04  1.7580e-04  5.7889e-05  1.8700e-02  1.7789e-04  2.8111e-04  2.1926e-04  0:01:58 1376
[...]
  1838  4.9191e-06  7.5850e-06  3.8348e-06  3.1578e-04  3.9661e-06  6.9909e-06  5.7269e-06  0:00:18  162
  1839  4.9075e-06  7.5674e-06  3.8254e-06  3.1495e-04  3.9571e-06  6.9770e-06  5.7131e-06  0:00:14  161
  1840  4.8959e-06  7.5497e-06  3.8160e-06  3.1410e-04  3.9480e-06  6.9631e-06  5.6994e-06  0:00:11  160
  1841  4.8842e-06  7.5322e-06  3.8067e-06  3.1322e-04  3.9389e-06  6.9492e-06  5.6858e-06  0:00:09  159
  1842  4.8727e-06  7.5146e-06  3.7974e-06  3.1233e-04  3.9299e-06  6.9354e-06  5.6721e-06  0:00:07  158
  1843  4.8611e-06  7.4971e-06  3.7881e-06  3.1142e-04  3.9209e-06  6.9215e-06  5.6585e-06  0:00:06  157
  1844  4.8496e-06  7.4797e-06  3.7789e-06  3.1048e-04  3.9119e-06  6.9076e-06  5.6450e-06  0:00:04  156
  1845  4.8381e-06  7.4623e-06  3.7697e-06  3.0953e-04  3.9029e-06  6.8938e-06  5.6312e-06  0:00:04  155
  1846  4.8266e-06  7.4450e-06  3.7606e-06  3.0856e-04  3.8940e-06  6.8800e-06  5.6173e-06  0:00:03  154
  1847  4.8151e-06  7.4277e-06  3.7515e-06  3.0757e-04  3.8850e-06  6.8663e-06  5.6035e-06  0:00:02  153
  1848  4.8037e-06  7.4104e-06  3.7425e-06  3.0657e-04  3.8761e-06  6.8527e-06  5.5897e-06  0:00:32  152

  iter  continuity  x-velocity  y-velocity  z-velocity      energy           k       omega     time/iter
  1849  4.7923e-06  7.3932e-06  3.7335e-06  3.0555e-04  3.8672e-06  6.8393e-06  5.5760e-06  0:00:26  151
  1850  4.7809e-06  7.3761e-06  3.7245e-06  3.0451e-04  3.8583e-06  6.8259e-06  5.5623e-06  0:00:20  150
  1851  4.7696e-06  7.3590e-06  3.7155e-06  3.0347e-04  3.8494e-06  6.8127e-06  5.5487e-06  0:00:16  149
  1852  4.7583e-06  7.3419e-06  3.7066e-06  3.0242e-04  3.8406e-06  6.7995e-06  5.5353e-06  0:00:13  148
  1853  4.7470e-06  7.3249e-06  3.6978e-06  3.0137e-04  3.8318e-06  6.7863e-06  5.5218e-06  0:00:10  147
  1854  4.7357e-06  7.3080e-06  3.6889e-06  3.0033e-04  3.8230e-06  6.7731e-06  5.5084e-06  0:00:08  146
  1855  4.7245e-06  7.2911e-06  3.6801e-06  2.9931e-04  3.8142e-06  6.7600e-06  5.4950e-06  0:00:06  145
  1856  4.7133e-06  7.2742e-06  3.6713e-06  2.9829e-04  3.8055e-06  6.7470e-06  5.4816e-06  0:00:05  144
  1857  4.7022e-06  7.2574e-06  3.6626e-06  2.9728e-04  3.7967e-06  6.7340e-06  5.4683e-06  0:00:04  143
  1858  4.6910e-06  7.2406e-06  3.6539e-06  2.9628e-04  3.7880e-06  6.7210e-06  5.4550e-06  0:00:03  142
  1859  4.6799e-06  7.2239e-06  3.6452e-06  2.9529e-04  3.7794e-06  6.7081e-06  5.4417e-06  0:00:03  141

  iter  continuity  x-velocity  y-velocity  z-velocity      energy           k       omega     time/iter
  1860  4.6689e-06  7.2072e-06  3.6365e-06  2.9430e-04  3.7707e-06  6.6952e-06  5.4284e-06  0:00:02  140
  1861  4.6578e-06  7.1906e-06  3.6279e-06  2.9333e-04  3.7621e-06  6.6824e-06  5.4151e-06  0:00:29  139
  1862  4.6468e-06  7.1740e-06  3.6193e-06  2.9237e-04  3.7535e-06  6.6696e-06  5.4018e-06  0:00:23  138
  1863  4.6359e-06  7.1574e-06  3.6107e-06  2.9143e-04  3.7450e-06  6.6568e-06  5.3886e-06  0:00:19  137
  1864  4.6249e-06  7.1409e-06  3.6022e-06  2.9050e-04  3.7364e-06  6.6441e-06  5.3754e-06  0:00:15  136
  1865  4.6140e-06  7.1244e-06  3.5936e-06  2.8959e-04  3.7279e-06  6.6313e-06  5.3622e-06  0:00:12  135
  1866  4.6031e-06  7.1080e-06  3.5851e-06  2.8870e-04  3.7194e-06  6.6186e-06  5.3490e-06  0:00:09  134
  1867  4.5923e-06  7.0916e-06  3.5767e-06  2.8784e-04  3.7109e-06  6.6059e-06  5.3359e-06  0:00:07  133
  1868  4.5815e-06  7.0753e-06  3.5682e-06  2.8699e-04  3.7025e-06  6.5932e-06  5.3229e-06  0:00:06  132
  1869  4.5707e-06  7.0590e-06  3.5598e-06  2.8616e-04  3.6941e-06  6.5805e-06  5.3099e-06  0:00:05  131
  1870  4.5599e-06  7.0428e-06  3.5513e-06  2.8536e-04  3.6857e-06  6.5678e-06  5.2969e-06  0:00:04  130

  iter  continuity  x-velocity  y-velocity  z-velocity      energy           k       omega     time/iter
  1871  4.5492e-06  7.0265e-06  3.5429e-06  2.8457e-04  3.6773e-06  6.5552e-06  5.2840e-06  0:00:03  129
  1872  4.5385e-06  7.0104e-06  3.5345e-06  2.8380e-04  3.6689e-06  6.5425e-06  5.2710e-06  0:00:28  128
  1873  4.5278e-06  6.9942e-06  3.5262e-06  2.8305e-04  3.6606e-06  6.5298e-06  5.2581e-06  0:00:22  127
  1874  4.5172e-06  6.9781e-06  3.5178e-06  2.8231e-04  3.6523e-06  6.5171e-06  5.2453e-06  0:00:18  126
  1875  4.5066e-06  6.9621e-06  3.5095e-06  2.8159e-04  3.6440e-06  6.5044e-06  5.2325e-06  0:00:14  125
  1876  4.4960e-06  6.9461e-06  3.5012e-06  2.8089e-04  3.6358e-06  6.4917e-06  5.2197e-06  0:00:11  124
  1877  4.4855e-06  6.9301e-06  3.4929e-06  2.8020e-04  3.6275e-06  6.4790e-06  5.2070e-06  0:00:09  123
  1878  4.4749e-06  6.9142e-06  3.4847e-06  2.7953e-04  3.6193e-06  6.4662e-06  5.1943e-06  0:00:07  122
  1879  4.4645e-06  6.8983e-06  3.4764e-06  2.7886e-04  3.6111e-06  6.4535e-06  5.1816e-06  0:00:06  121
  1880  4.4540e-06  6.8824e-06  3.4682e-06  2.7821e-04  3.6029e-06  6.4407e-06  5.1676e-06  0:00:04  120
  1881  4.4436e-06  6.8666e-06  3.4600e-06  2.7757e-04  3.5948e-06  6.4279e-06  5.1547e-06  0:00:03  119

  iter  continuity  x-velocity  y-velocity  z-velocity      energy           k       omega     time/iter
  1882  4.4332e-06  6.8508e-06  3.4518e-06  2.7695e-04  3.5867e-06  6.4151e-06  5.1435e-06  0:00:03  118
  1883  4.4228e-06  6.8351e-06  3.4436e-06  2.7633e-04  3.5785e-06  6.4023e-06  5.1323e-06  0:00:02  117
  1884  4.4125e-06  6.8194e-06  3.4354e-06  2.7573e-04  3.5705e-06  6.3894e-06  5.1210e-06  0:00:02  116
  1885  4.4022e-06  6.8037e-06  3.4273e-06  2.7513e-04  3.5624e-06  6.3764e-06  5.1096e-06  0:00:01  115
  1886  4.3919e-06  6.7880e-06  3.4192e-06  2.7455e-04  3.5543e-06  6.3635e-06  5.0981e-06  0:00:24  114
  1887  4.3816e-06  6.7724e-06  3.4110e-06  2.7397e-04  3.5463e-06  6.3505e-06  5.0866e-06  0:00:19  113
  1888  4.3713e-06  6.7568e-06  3.4029e-06  2.7340e-04  3.5382e-06  6.3375e-06  5.0750e-06  0:00:15  112
  1889  4.3611e-06  6.7413e-06  3.3949e-06  2.7284e-04  3.5302e-06  6.3245e-06  5.0634e-06  0:00:12  111
  1890  4.3509e-06  6.7257e-06  3.3868e-06  2.7229e-04  3.5222e-06  6.3115e-06  5.0517e-06  0:00:09  110
  1891  4.3408e-06  6.7103e-06  3.3788e-06  2.7175e-04  3.5143e-06  6.2985e-06  5.0400e-06  0:00:07  109
  1892  4.3307e-06  6.6948e-06  3.3707e-06  2.7121e-04  3.5063e-06  6.2855e-06  5.0282e-06  0:00:06  108

  iter  continuity  x-velocity  y-velocity  z-velocity      energy           k       omega     time/iter
  1893  4.3206e-06  6.6794e-06  3.3627e-06  2.7068e-04  3.4984e-06  6.2725e-06  5.0164e-06  0:00:05  107
  1894  4.3105e-06  6.6640e-06  3.3547e-06  2.7016e-04  3.4905e-06  6.2594e-06  5.0046e-06  0:00:04  106
  1895  4.3005e-06  6.6486e-06  3.3468e-06  2.6964e-04  3.4826e-06  6.2464e-06  4.9928e-06  0:00:03  105
  1896  4.2905e-06  6.6333e-06  3.3388e-06  2.6912e-04  3.4747e-06  6.2333e-06  4.9810e-06  0:00:02  104
  1897  4.2805e-06  6.6180e-06  3.3309e-06  2.6861e-04  3.4669e-06  6.2203e-06  4.9692e-06  0:00:02  103
  1898  4.2705e-06  6.6028e-06  3.3230e-06  2.6810e-04  3.4590e-06  6.2073e-06  4.9574e-06  0:00:22  102
  1899  4.2606e-06  6.5875e-06  3.3151e-06  2.6759e-04  3.4512e-06  6.1943e-06  4.9455e-06  0:00:17  101
  1900  4.2507e-06  6.5723e-06  3.3072e-06  2.6709e-04  3.4434e-06  6.1813e-06  4.9337e-06  0:00:14  100
  1901  4.2408e-06  6.5572e-06  3.2994e-06  2.6658e-04  3.4356e-06  6.1683e-06  4.9219e-06  0:00:11   99
  1902  4.2309e-06  6.5421e-06  3.2915e-06  2.6607e-04  3.4278e-06  6.1554e-06  4.9101e-06  0:00:09   98
  1903  4.2211e-06  6.5270e-06  3.2837e-06  2.6556e-04  3.4200e-06  6.1424e-06  4.8983e-06  0:00:07   97

  iter  continuity  x-velocity  y-velocity  z-velocity      energy           k       omega     time/iter
  1904  4.2113e-06  6.5119e-06  3.2759e-06  2.6504e-04  3.4123e-06  6.1295e-06  4.8866e-06  0:00:05   96
  1905  4.2015e-06  6.4969e-06  3.2681e-06  2.6453e-04  3.4046e-06  6.1166e-06  4.8748e-06  0:00:04   95
  1906  4.1918e-06  6.4819e-06  3.2604e-06  2.6400e-04  3.3969e-06  6.1037e-06  4.8631e-06  0:00:03   94
  1907  4.1820e-06  6.4670e-06  3.2527e-06  2.6347e-04  3.3892e-06  6.0908e-06  4.8514e-06  0:00:03   93
  1908  4.1723e-06  6.4521e-06  3.2450e-06  2.6293e-04  3.3815e-06  6.0780e-06  4.8397e-06  0:00:02   92
  1909  4.1627e-06  6.4372e-06  3.2373e-06  2.6238e-04  3.3739e-06  6.0651e-06  4.8281e-06  0:00:02   91
  1910  4.1530e-06  6.4223e-06  3.2296e-06  2.6183e-04  3.3662e-06  6.0522e-06  4.8164e-06  0:00:01   90
  1911  4.1434e-06  6.4075e-06  3.2220e-06  2.6126e-04  3.3586e-06  6.0394e-06  4.8048e-06  0:00:19   89
  1912  4.1338e-06  6.3928e-06  3.2144e-06  2.6069e-04  3.3510e-06  6.0266e-06  4.7933e-06  0:00:15   88
  1913  4.1242e-06  6.3780e-06  3.2068e-06  2.6010e-04  3.3435e-06  6.0137e-06  4.7817e-06  0:00:12   87
  1914  4.1147e-06  6.3633e-06  3.1993e-06  2.5951e-04  3.3359e-06  6.0009e-06  4.7702e-06  0:00:09   86

  iter  continuity  x-velocity  y-velocity  z-velocity      energy           k       omega     time/iter
  1915  4.1052e-06  6.3487e-06  3.1917e-06  2.5890e-04  3.3284e-06  5.9881e-06  4.7587e-06  0:00:07   85
  1916  4.0957e-06  6.3340e-06  3.1842e-06  2.5829e-04  3.3208e-06  5.9753e-06  4.7473e-06  0:00:06   84
  1917  4.0862e-06  6.3194e-06  3.1767e-06  2.5766e-04  3.3133e-06  5.9625e-06  4.7358e-06  0:00:05   83
  1918  4.0767e-06  6.3049e-06  3.1693e-06  2.5695e-04  3.3059e-06  5.9497e-06  4.7244e-06  0:00:04   82
  1919  4.0673e-06  6.2904e-06  3.1619e-06  2.5619e-04  3.2984e-06  5.9369e-06  4.7131e-06  0:00:03   81
  1920  4.0579e-06  6.2759e-06  3.1545e-06  2.5545e-04  3.2910e-06  5.9242e-06  4.7017e-06  0:00:02   80
  1921  4.0486e-06  6.2614e-06  3.1471e-06  2.5469e-04  3.2835e-06  5.9115e-06  4.6904e-06  0:00:02   79
  1922  4.0392e-06  6.2470e-06  3.1397e-06  2.5391e-04  3.2761e-06  5.8988e-06  4.6791e-06  0:00:01   78
  1923  4.0299e-06  6.2326e-06  3.1324e-06  2.5314e-04  3.2687e-06  5.8861e-06  4.6679e-06  0:00:01   77
  1924  4.0206e-06  6.2183e-06  3.1251e-06  2.5238e-04  3.2614e-06  5.8733e-06  4.6567e-06  0:00:16   76
  1925  4.0113e-06  6.2040e-06  3.1178e-06  2.5163e-04  3.2540e-06  5.8606e-06  4.6455e-06  0:00:13   75

  iter  continuity  x-velocity  y-velocity  z-velocity      energy           k       omega     time/iter
  1926  4.0021e-06  6.1897e-06  3.1106e-06  2.5088e-04  3.2467e-06  5.8479e-06  4.6343e-06  0:00:10   74
  1927  3.9928e-06  6.1755e-06  3.1034e-06  2.5013e-04  3.2394e-06  5.8352e-06  4.6232e-06  0:00:08   73
  1928  3.9836e-06  6.1613e-06  3.0962e-06  2.4940e-04  3.2321e-06  5.8225e-06  4.6120e-06  0:00:06   72
  1929  3.9745e-06  6.1471e-06  3.0890e-06  2.4866e-04  3.2248e-06  5.8098e-06  4.6009e-06  0:00:05   71
  1930  3.9653e-06  6.1329e-06  3.0818e-06  2.4794e-04  3.2176e-06  5.7972e-06  4.5899e-06  0:00:04   70
  1931  3.9562e-06  6.1188e-06  3.0747e-06  2.4722e-04  3.2103e-06  5.7846e-06  4.5788e-06  0:00:03   69
  1932  3.9471e-06  6.1048e-06  3.0676e-06  2.4651e-04  3.2031e-06  5.7720e-06  4.5678e-06  0:00:02   68
  1933  3.9380e-06  6.0907e-06  3.0605e-06  2.4581e-04  3.1959e-06  5.7594e-06  4.5568e-06  0:00:02   67
  1934  3.9289e-06  6.0767e-06  3.0535e-06  2.4512e-04  3.1887e-06  5.7469e-06  4.5458e-06  0:00:01   66
  1935  3.9199e-06  6.0628e-06  3.0464e-06  2.4444e-04  3.1816e-06  5.7344e-06  4.5348e-06  0:00:01   65
  1936  3.9109e-06  6.0488e-06  3.0394e-06  2.4377e-04  3.1744e-06  5.7219e-06  4.5239e-06  0:00:01   64

  iter  continuity  x-velocity  y-velocity  z-velocity      energy           k       omega     time/iter
  1937  3.9019e-06  6.0349e-06  3.0325e-06  2.4311e-04  3.1673e-06  5.7094e-06  4.5130e-06  0:00:13   63
  1938  3.8929e-06  6.0211e-06  3.0255e-06  2.4246e-04  3.1602e-06  5.6971e-06  4.4923e-06  0:00:10   62
  1939  3.8835e-06  6.0072e-06  3.0186e-06  2.4183e-04  3.1526e-06  5.6847e-06  4.4722e-06  0:00:08   61
  1940  3.8745e-06  5.9934e-06  3.0116e-06  2.4120e-04  3.1454e-06  5.6723e-06  4.4571e-06  0:00:07   60
  1941  3.8657e-06  5.9796e-06  3.0047e-06  2.4058e-04  3.1384e-06  5.6597e-06  4.4509e-06  0:00:05   59
  1942  3.8568e-06  5.9658e-06  2.9979e-06  2.3998e-04  3.1314e-06  5.6472e-06  4.4436e-06  0:00:04   58
  1943  3.8480e-06  5.9521e-06  2.9910e-06  2.3939e-04  3.1244e-06  5.6346e-06  4.4357e-06  0:00:03   57
  1944  3.8392e-06  5.9384e-06  2.9842e-06  2.3882e-04  3.1174e-06  5.6220e-06  4.4273e-06  0:00:02   56
  1945  3.8304e-06  5.9248e-06  2.9774e-06  2.3825e-04  3.1105e-06  5.6094e-06  4.4186e-06  0:00:02   55
  1946  3.8216e-06  5.9112e-06  2.9706e-06  2.3770e-04  3.1035e-06  5.5969e-06  4.4097e-06  0:00:02   54
  1947  3.8128e-06  5.8976e-06  2.9638e-06  2.3716e-04  3.0966e-06  5.5843e-06  4.4005e-06  0:00:01   53

  iter  continuity  x-velocity  y-velocity  z-velocity      energy           k       omega     time/iter
  1948  3.8041e-06  5.8840e-06  2.9570e-06  2.3663e-04  3.0897e-06  5.5717e-06  4.3912e-06  0:00:01   52
  1949  3.7954e-06  5.8705e-06  2.9503e-06  2.3612e-04  3.0828e-06  5.5591e-06  4.3818e-06  0:00:01   51
  1950  3.7867e-06  5.8570e-06  2.9436e-06  2.3561e-04  3.0759e-06  5.5466e-06  4.3722e-06  0:00:11   50
  1951  3.7781e-06  5.8435e-06  2.9368e-06  2.3512e-04  3.0690e-06  5.5340e-06  4.3625e-06  0:00:08   49
  1952  3.7694e-06  5.8300e-06  2.9302e-06  2.3464e-04  3.0622e-06  5.5215e-06  4.3528e-06  0:00:07   48
  1953  3.7608e-06  5.8166e-06  2.9235e-06  2.3417e-04  3.0554e-06  5.5090e-06  4.3430e-06  0:00:05   47
  1954  3.7522e-06  5.8033e-06  2.9168e-06  2.3371e-04  3.0486e-06  5.4965e-06  4.3332e-06  0:00:04   46
  1955  3.7436e-06  5.7899e-06  2.9102e-06  2.3326e-04  3.0418e-06  5.4840e-06  4.3233e-06  0:00:03   45
  1956  3.7351e-06  5.7766e-06  2.9035e-06  2.3282e-04  3.0350e-06  5.4716e-06  4.3134e-06  0:00:02   44
  1957  3.7266e-06  5.7633e-06  2.8969e-06  2.3239e-04  3.0283e-06  5.4592e-06  4.3035e-06  0:00:02   43
  1958  3.7181e-06  5.7500e-06  2.8903e-06  2.3197e-04  3.0215e-06  5.4468e-06  4.2936e-06  0:00:01   42

  iter  continuity  x-velocity  y-velocity  z-velocity      energy           k       omega     time/iter
  1959  3.7096e-06  5.7368e-06  2.8837e-06  2.3155e-04  3.0148e-06  5.4344e-06  4.2836e-06  0:00:01   41
  1960  3.7012e-06  5.7236e-06  2.8772e-06  2.3115e-04  3.0082e-06  5.4221e-06  4.2737e-06  0:00:01   40
  1961  3.6927e-06  5.7104e-06  2.8706e-06  2.3075e-04  3.0015e-06  5.4097e-06  4.2637e-06  0:00:01   39
  1962  3.6843e-06  5.6973e-06  2.8641e-06  2.3036e-04  2.9949e-06  5.3974e-06  4.2537e-06  0:00:01   38
  1963  3.6760e-06  5.6842e-06  2.8575e-06  2.2997e-04  2.9883e-06  5.3852e-06  4.2438e-06  0:00:08   37
  1964  3.6676e-06  5.6711e-06  2.8510e-06  2.2959e-04  2.9817e-06  5.3729e-06  4.2338e-06  0:00:06   36
  1965  3.6593e-06  5.6581e-06  2.8445e-06  2.2922e-04  2.9751e-06  5.3607e-06  4.2238e-06  0:00:05   35
  1966  3.6510e-06  5.6450e-06  2.8380e-06  2.2885e-04  2.9685e-06  5.3485e-06  4.2138e-06  0:00:04   34
  1967  3.6428e-06  5.6320e-06  2.8315e-06  2.2848e-04  2.9620e-06  5.3364e-06  4.2039e-06  0:00:03   33
  1968  3.6346e-06  5.6191e-06  2.8251e-06  2.2812e-04  2.9555e-06  5.3242e-06  4.1939e-06  0:00:02   32
  1969  3.6264e-06  5.6061e-06  2.8186e-06  2.2776e-04  2.9490e-06  5.3121e-06  4.1839e-06  0:00:02   31

  iter  continuity  x-velocity  y-velocity  z-velocity      energy           k       omega     time/iter
  1970  3.6182e-06  5.5932e-06  2.8122e-06  2.2741e-04  2.9426e-06  5.3000e-06  4.1740e-06  0:00:01   30
  1971  3.6100e-06  5.5804e-06  2.8057e-06  2.2705e-04  2.9361e-06  5.2880e-06  4.1640e-06  0:00:01   29
  1972  3.6019e-06  5.5675e-06  2.7993e-06  2.2668e-04  2.9297e-06  5.2759e-06  4.1541e-06  0:00:01   28
  1973  3.5937e-06  5.5547e-06  2.7929e-06  2.2630e-04  2.9233e-06  5.2639e-06  4.1442e-06  0:00:01   27
  1974  3.5857e-06  5.5419e-06  2.7865e-06  2.2592e-04  2.9169e-06  5.2519e-06  4.1342e-06  0:00:06   26
  1975  3.5776e-06  5.5291e-06  2.7801e-06  2.2554e-04  2.9105e-06  5.2400e-06  4.1243e-06  0:00:04   25
  1976  3.5695e-06  5.5164e-06  2.7737e-06  2.2516e-04  2.9041e-06  5.2280e-06  4.1144e-06  0:00:03   24
  1977  3.5615e-06  5.5037e-06  2.7674e-06  2.2477e-04  2.8978e-06  5.2173e-06  4.1044e-06  0:00:03   23
  1978  3.5535e-06  5.4910e-06  2.7610e-06  2.2437e-04  2.8915e-06  5.2061e-06  4.0942e-06  0:00:02   22
  1979  3.5455e-06  5.4784e-06  2.7547e-06  2.2398e-04  2.8852e-06  5.1942e-06  4.0839e-06  0:00:02   21
  1980  3.5376e-06  5.4658e-06  2.7484e-06  2.2358e-04  2.8789e-06  5.1820e-06  4.0736e-06  0:00:01   20

  iter  continuity  x-velocity  y-velocity  z-velocity      energy           k       omega     time/iter
  1981  3.5297e-06  5.4532e-06  2.7420e-06  2.2318e-04  2.8727e-06  5.1697e-06  4.0635e-06  0:00:01   19
  1982  3.5218e-06  5.4406e-06  2.7357e-06  2.2278e-04  2.8664e-06  5.1577e-06  4.0535e-06  0:00:01   18
  1983  3.5140e-06  5.4281e-06  2.7294e-06  2.2238e-04  2.8603e-06  5.1462e-06  4.0437e-06  0:00:00   17
  1984  3.5061e-06  5.4156e-06  2.7231e-06  2.2197e-04  2.8541e-06  5.1346e-06  4.0339e-06  0:00:00   16
  1985  3.4984e-06  5.4032e-06  2.7168e-06  2.2156e-04  2.8480e-06  5.1228e-06  4.0242e-06  0:00:00   15
  1986  3.4906e-06  5.3907e-06  2.7105e-06  2.2115e-04  2.8419e-06  5.1109e-06  4.0144e-06  0:00:03   14
  1987  3.4829e-06  5.3783e-06  2.7042e-06  2.2074e-04  2.8358e-06  5.0989e-06  4.0047e-06  0:00:02   13
  1988  3.4752e-06  5.3659e-06  2.6980e-06  2.2032e-04  2.8297e-06  5.0868e-06  3.9950e-06  0:00:02   12
  1989  3.4675e-06  5.3535e-06  2.6917e-06  2.1990e-04  2.8237e-06  5.0747e-06  3.9852e-06  0:00:01   11
  1990  3.4599e-06  5.3412e-06  2.6855e-06  2.1948e-04  2.8176e-06  5.0626e-06  3.9755e-06  0:00:01   10
  1991  3.4523e-06  5.3288e-06  2.6793e-06  2.1905e-04  2.8117e-06  5.0504e-06  3.9658e-06  0:00:01    9

  iter  continuity  x-velocity  y-velocity  z-velocity      energy           k       omega     time/iter
  1992  3.4447e-06  5.3165e-06  2.6731e-06  2.1862e-04  2.8057e-06  5.0382e-06  3.9561e-06  0:00:00    8
  1993  3.4372e-06  5.3043e-06  2.6670e-06  2.1818e-04  2.7998e-06  5.0259e-06  3.9465e-06  0:00:00    7
  1994  3.4297e-06  5.2920e-06  2.6608e-06  2.1775e-04  2.7939e-06  5.0136e-06  3.9368e-06  0:00:00    6
  1995  3.4222e-06  5.2798e-06  2.6547e-06  2.1730e-04  2.7880e-06  5.0012e-06  3.9272e-06  0:00:00    5
  1996  3.4147e-06  5.2677e-06  2.6485e-06  2.1686e-04  2.7821e-06  4.9888e-06  3.9176e-06  0:00:00    4
  1997  3.4072e-06  5.2555e-06  2.6424e-06  2.1641e-04  2.7763e-06  4.9763e-06  3.9080e-06  0:00:00    3
  1998  3.3998e-06  5.2434e-06  2.6363e-06  2.1595e-04  2.7705e-06  4.9638e-06  3.8985e-06  0:00:00    2
  1999  3.3924e-06  5.2314e-06  2.6303e-06  2.1550e-04  2.7647e-06  4.9513e-06  3.8889e-06  0:00:00    1
  2000  3.3850e-06  5.2193e-06  2.6242e-06  2.1503e-04  2.7589e-06  4.9388e-06  3.8794e-06  0:00:00    0

> 
adjoint/                parallel/               server/
define/                 parametric-study/       solve/
display/                plot/                   surface/
exit                    preferences/            turbo-workflow/
file/                   print-license-usage     views/
mesh/                   report/

> /file/write-case-data project1
Fast-loading "C:\PROGRA~1\ANSYSI~1\v231\fluent\fluent23.1.0\\addons\afd\lib\hdfio.bin"
Done.

Writing to Engs-30669:"C:\Users\kebl7595\Desktop\CFD\Runs\Viscous\Mach 0.3\finer mesh\project1.cas.h5" in NODE0 mode and compression level 1 ...
       17100 cells,     1 zone  ...
       57438 faces,     8 zones ...
       23384 nodes,     1 zone  ...
  Done.
Done.

Writing to Engs-30669:"C:\Users\kebl7595\Desktop\CFD\Runs\Viscous\Mach 0.3\finer mesh\project1.dat.h5" in NODE0 mode and compression level 1 ...
  Writing results.
Done.

> /file/export/ascii "./surface.dat" wing te () no pressure mach-number quit no

Writing "./surface.dat"...

Writing information to ascii file ...
Done.


> /report/forces/wall-forces y -0.15643 0.98769 0 y "Lift"

> /report/forces/wall-forces y 0.98769 0.15643 0 y "Drag"

> /exit

Posting ANSYS Product Improvement Program performance data 
Done.
Auto-Transcript Stop Time:  14:51:12, 21 May 2024 GMT Daylight Time 
Total Transcript Time: 2 Minute 48 Second.
