Auto-Transcript Start Time:  10:08:12, 22 May 2024 GMT Daylight Time 
Current Directory: "C:\Users\kebl7595\Desktop\CFD\Runs\Flap\3 degrees"

              Welcome to ANSYS Fluent 2023 R1

              Copyright 1987-2023 ANSYS, Inc. All Rights Reserved.
              Unauthorized use, distribution or duplication is prohibited.
              This product is subject to U.S. laws governing export and re-export.
              For full Legal Notice, see documentation.

Build Time: Nov 28 2022 09:52:02 EST  Build Id: 10208  
 
Connected License Server List:	1055@ansyslic.eng.ox.ac.uk

*********************************************
Info: Your license enables 4-way parallel execution.
For faster simulations, please start the application with the appropriate parallel options.
*********************************************


     --------------------------------------------------------------
     This is an academic version of ANSYS FLUENT. Usage of this product
     license is limited to the terms and conditions specified in your ANSYS
     license form, additional terms section.
     --------------------------------------------------------------
Host spawning Node 0 on machine "Engs-30669" (win64).

------------------------------------------------------------------------------------
ID    Hostname    Core  O.S.         PID    Vendor                                 
------------------------------------------------------------------------------------
n0    Engs-30669  1/32  Windows-x64  40868  13th Gen Intel(R) Core(TM) i9-13900    
host  Engs-30669        Windows-x64  4644   13th Gen Intel(R) Core(TM) i9-13900    

MPI Option Selected: intel
------------------------------------------------------------------------------------

Cleanup script file is C:\\Users\\kebl7595\\Desktop\\CFD\\Runs\\Flap\\3 degrees\\cleanup-fluent-Engs-30669-4644.bat

Posting ANSYS Product Improvement Program startup data
Done.

Reading journal file C:/Users/kebl7595/Desktop/CFD/Runs/Flap/3 degrees/project1.jou...

> /file/set-batch-options no no no 

> 
define/                 parametric-study/       solve/
display/                plot/                   surface/
exit                    preferences/            switch-to-meshing-mode
file/                   print-license-usage     turbo-workflow/
mesh/                   report/                 views/
parallel/               server/

> /file/import/cgns/mesh  "./project1.cgns"
Engs-30669 has other FLUENT parallel processes running.                       Process affinity not being set.

Importing "./project1.cgns"

Opening library "C:\\PROGRA~1\\ANSYSI~1\\v231\\fluent\\fluent23.1.0\\vki\\win64\\devtools4.4.6.dll"... done.

Read    33000 nodes
   24072 hexahedral cells, zone  1
   17404 quadrilateral wall faces, zone  2.
   63040 quadrilateral interior faces, zone  3.
     474 quadrilateral interface faces, zone  4.

Building...
     mesh
     materials,
     interface,
     domains,
     zones,
	interface-default_subface
	default_interior-1
	default_subface
	default
     parallel,
The automatic selection for flux type has changed to Rhie-Chow: momentum based.

Done.


> 
adjoint/                parallel/               server/
define/                 parametric-study/       solve/
display/                plot/                   surface/
exit                    preferences/            turbo-workflow/
file/                   print-license-usage     views/
mesh/                   report/

> /define/models/solver/density-based-implicit yes

> 
adjoint/                parallel/               server/
define/                 parametric-study/       solve/
display/                plot/                   surface/
exit                    preferences/            turbo-workflow/
file/                   print-license-usage     views/
mesh/                   report/

> /define/models/energy? yes yes invalid command [yes]
yes

> /define/models/viscous/kw-standard? yes

> 
adjoint/                parallel/               server/
define/                 parametric-study/       solve/
display/                plot/                   surface/
exit                    preferences/            turbo-workflow/
file/                   print-license-usage     views/
mesh/                   report/

> /define/materials/change-create air air air is a fluid
yes 
Density
ideal-gas no data required.

no no no no no no

> 
adjoint/                parallel/               server/
define/                 parametric-study/       solve/
display/                plot/                   surface/
exit                    preferences/            turbo-workflow/
file/                   print-license-usage     views/
mesh/                   report/

> /mesh/modify-zones/sep-face-zone-angle 2 90 yes

 8024 faces in contiguous region 0
 441 faces in contiguous region 1
 618 faces in contiguous region 2
 8024 faces in contiguous region 3
 297 faces in contiguous region 4
 Separates zone 2 into 5 zone(s).
Updating new zone information...
   created new zone default_subface:009 from default_subface
   created new zone default_subface:008 from default_subface
   created new zone default_subface:007 from default_subface
   created new zone default_subface:006 from default_subface
done.

> 
adjoint/                parallel/               server/
define/                 parametric-study/       solve/
display/                plot/                   surface/
exit                    preferences/            turbo-workflow/
file/                   print-license-usage     views/
mesh/                   report/

> /define/boundary-conditions/zone-name  6 wing

> /define/boundary-conditions/zone-name  2 sym1

> /define/boundary-conditions/zone-name  8 sym2

> 
adjoint/                parallel/               server/
define/                 parametric-study/       solve/
display/                plot/                   surface/
exit                    preferences/            turbo-workflow/
file/                   print-license-usage     views/
mesh/                   report/

> /define/boundary-conditions/zone-name  7 far1

> /define/boundary-conditions/zone-name 9 far2

> 
adjoint/                parallel/               server/
define/                 parametric-study/       solve/
display/                plot/                   surface/
exit                    preferences/            turbo-workflow/
file/                   print-license-usage     views/
mesh/                   report/

> /define/boundary-conditions/zone-type  7 pressure-far-field

> /define/boundary-conditions/zone-type 9 pressure-far-field

> /define/boundary-conditions/zone-type  2 symmetry

> /define/boundary-conditions/zone-type  8 symmetry

> 
adjoint/                parallel/               server/
define/                 parametric-study/       solve/
display/                plot/                   surface/
exit                    preferences/            turbo-workflow/
file/                   print-license-usage     views/
mesh/                   report/

> /define/boundary-conditions/pressure-far-field (far2 far1)
far1 no 0 no 0.1 no 300 yes no 0.99863 no -0.052336 no 0. no yes 5 0.02

> /define/boundary-conditions/pressure-far-field (far2 far1)
far2 no 0 no 0.1 no 300 yes no 0.99863 no -0.052336 no 0. no yes 5 0.02

> 
adjoint/                parallel/               server/
define/                 parametric-study/       solve/
display/                plot/                   surface/
exit                    preferences/            turbo-workflow/
file/                   print-license-usage     views/
mesh/                   report/

> /solve/initialize/compute-defaults/pressure-far-field (far2 far1)
far1

> /solve/initialize/initialize-flow

> 
adjoint/                parallel/               server/
define/                 parametric-study/       solve/
display/                plot/                   surface/
exit                    preferences/            turbo-workflow/
file/                   print-license-usage     views/
mesh/                   report/

> /solve/monitors/residual/convergence-criteria 1.e-9 1.e-9 1.e-9 1.e-9 1.e-9 1.e-9 1.e-9

> /solve/iterate 2000

  iter  continuity  x-velocity  y-velocity  z-velocity      energy           k       omega     time/iter
     1  1.0000e+00  1.0000e+00  1.0000e+00  1.0000e+00  1.0000e+00  5.2289e-02  5.2870e-02  0:33:19 1999
     2  4.6064e-01  2.6156e-01  2.8204e-01  1.0000e+00  4.6298e-01  4.6658e-02  3.9281e-02  0:26:38 1998
     3  2.0552e-01  1.4512e-01  1.5581e-01  9.2714e-01  2.0577e-01  4.1971e-02  3.4259e-02  0:21:18 1997
     4  1.5012e-01  8.5768e-02  1.0348e-01  9.0856e-01  1.5074e-01  3.8041e-02  3.1288e-02  0:17:02 1996
     5  1.2576e-01  5.9153e-02  7.8568e-02  9.5579e-01  1.2667e-01  3.4782e-02  2.8991e-02  0:13:37 1995
     6  1.0789e-01  4.2451e-02  6.3594e-02  9.5349e-01  1.0870e-01  3.1967e-02  2.7021e-02  0:17:32 1994
     7  9.5527e-02  2.9548e-02  5.2989e-02  1.0007e+00  9.6138e-02  2.9543e-02  2.5234e-02  0:14:01 1993
     8  9.0694e-02  2.0422e-02  4.5660e-02  1.0668e+00  9.1207e-02  2.7461e-02  2.3667e-02  0:11:13 1992
     9  8.7960e-02  1.4873e-02  4.1120e-02  1.1275e+00  8.8428e-02  2.5688e-02  2.2339e-02  0:08:58 1991
    10  8.5211e-02  1.1916e-02  3.8705e-02  1.1024e+00  8.5628e-02  2.4178e-02  2.1219e-02  0:07:10 1990
    11  8.1689e-02  1.0276e-02  3.7368e-02  9.9353e-01  8.2048e-02  2.2886e-02  2.0171e-02  0:05:44 1989

  iter  continuity  x-velocity  y-velocity  z-velocity      energy           k       omega     time/iter
    12  7.8290e-02  9.2701e-03  3.6843e-02  9.3617e-01  7.8599e-02  2.1788e-02  1.9319e-02  0:04:35 1988
    13  7.5525e-02  8.8566e-03  3.6932e-02  9.0051e-01  7.5794e-02  2.0844e-02  1.8534e-02  0:03:40 1987
    14  7.3581e-02  9.1341e-03  3.7332e-02  1.0198e+00  7.3823e-02  2.0009e-02  1.7744e-02  0:09:33 1986
    15  7.1536e-02  9.9144e-03  3.7600e-02  1.2748e+00  7.1760e-02  1.9236e-02  1.7125e-02  0:07:38 1985
    16  6.9903e-02  1.1112e-02  3.7448e-02  1.0755e+00  7.0112e-02  1.8531e-02  1.6552e-02  0:06:06 1984
    17  6.8121e-02  1.2209e-02  3.6984e-02  9.7196e-01  6.8317e-02  1.7871e-02  1.6056e-02  0:04:53 1983
    18  6.7499e-02  1.3155e-02  3.6678e-02  9.7123e-01  6.7695e-02  1.7259e-02  1.5631e-02  0:03:54 1982
    19  6.5835e-02  1.4124e-02  3.6543e-02  9.8741e-01  6.6026e-02  1.6717e-02  1.5191e-02  0:03:07 1981
    20  6.2338e-02  1.4878e-02  3.6306e-02  1.0034e+00  6.2513e-02  1.6240e-02  1.4749e-02  0:02:30 1980
    21  5.6917e-02  1.5267e-02  3.6019e-02  1.0079e+00  5.7061e-02  1.5790e-02  1.4400e-02  0:08:36 1979
    22  4.9901e-02  1.5194e-02  3.5676e-02  9.8912e-01  5.0005e-02  1.5371e-02  1.4010e-02  0:06:52 1978

  iter  continuity  x-velocity  y-velocity  z-velocity      energy           k       omega     time/iter
    23  4.2040e-02  1.4697e-02  3.5302e-02  9.4353e-01  4.2102e-02  1.5011e-02  1.3596e-02  0:05:30 1977
    24  3.4675e-02  1.3903e-02  3.5034e-02  8.7424e-01  3.4705e-02  1.4705e-02  1.3187e-02  0:04:24 1976
    25  2.8708e-02  1.2643e-02  3.4930e-02  8.0023e-01  2.8720e-02  1.4403e-02  1.2942e-02  0:03:31 1975
    26  2.5320e-02  1.1075e-02  3.4936e-02  7.3876e-01  2.5336e-02  1.4093e-02  1.2615e-02  0:02:49 1974
    27  2.3903e-02  9.3052e-03  3.4880e-02  7.0115e-01  2.3938e-02  1.3768e-02  1.2183e-02  0:08:49 1973
    28  2.4411e-02  7.9476e-03  3.4955e-02  6.8208e-01  2.4468e-02  1.3482e-02  1.1852e-02  0:07:03 1972
    29  2.5832e-02  7.1646e-03  3.4973e-02  6.7059e-01  2.5905e-02  1.3233e-02  1.1520e-02  0:05:38 1971
    30  2.7500e-02  6.7278e-03  3.4902e-02  6.6127e-01  2.7582e-02  1.2949e-02  1.1153e-02  0:04:31 1970
    31  2.8988e-02  6.4078e-03  3.4624e-02  6.5191e-01  2.9077e-02  1.2688e-02  1.0782e-02  0:03:36 1969
    32  2.9932e-02  6.1406e-03  3.4025e-02  6.3806e-01  3.0023e-02  1.2455e-02  1.0443e-02  0:02:53 1968
    33  3.0066e-02  5.8860e-03  3.3045e-02  6.1662e-01  3.0155e-02  1.2232e-02  1.0116e-02  0:02:18 1967

  iter  continuity  x-velocity  y-velocity  z-velocity      energy           k       omega     time/iter
    34  2.9636e-02  5.5210e-03  3.1813e-02  5.8888e-01  2.9719e-02  1.2011e-02  9.8058e-03  0:01:51 1966
    35  2.8591e-02  5.0804e-03  3.0297e-02  5.5503e-01  2.8664e-02  1.1811e-02  9.5493e-03  0:08:01 1965
    36  2.7135e-02  4.5984e-03  2.8554e-02  5.1922e-01  2.7194e-02  1.1637e-02  9.3101e-03  0:06:25 1964
    37  2.5450e-02  4.1390e-03  2.6685e-02  4.8350e-01  2.5492e-02  1.1450e-02  9.1317e-03  0:05:08 1963
    38  2.3668e-02  3.7837e-03  2.4715e-02  4.4892e-01  2.3693e-02  1.1269e-02  8.9589e-03  0:04:06 1962
    39  2.2036e-02  3.5433e-03  2.2710e-02  4.1606e-01  2.2045e-02  1.1110e-02  8.8513e-03  0:03:17 1961
    40  2.0628e-02  3.4312e-03  2.0743e-02  3.8699e-01  2.0624e-02  1.0953e-02  8.7613e-03  0:02:37 1960
    41  1.9453e-02  3.4073e-03  1.8889e-02  3.5915e-01  1.9438e-02  1.0831e-02  8.7160e-03  0:02:06 1959
    42  1.8530e-02  3.4656e-03  1.7213e-02  3.3953e-01  1.8510e-02  1.0716e-02  8.6557e-03  0:01:41 1958
    43  1.7770e-02  3.5715e-03  1.5738e-02  3.2071e-01  1.7747e-02  1.0653e-02  8.6080e-03  0:07:52 1957
    44  1.7093e-02  3.6230e-03  1.4691e-02  3.1421e-01  1.7070e-02  1.0634e-02  8.5544e-03  0:06:17 1956

  iter  continuity  x-velocity  y-velocity  z-velocity      energy           k       omega     time/iter
    45  1.6692e-02  3.6853e-03  1.3794e-02  3.0794e-01  1.6670e-02  1.0601e-02  8.4076e-03  0:05:02 1955
    46  1.6549e-02  3.7257e-03  1.3211e-02  3.0632e-01  1.6531e-02  1.0725e-02  8.4425e-03  0:04:01 1954
    47  1.6463e-02  3.7622e-03  1.2792e-02  3.0215e-01  1.6450e-02  1.0655e-02  8.3025e-03  0:03:13 1953
    48  1.6343e-02  3.6968e-03  1.2610e-02  2.9637e-01  1.6334e-02  1.0661e-02  8.1334e-03  0:02:34 1952
    49  1.6231e-02  3.5867e-03  1.2637e-02  2.9662e-01  1.6226e-02  1.0943e-02  8.1329e-03  0:02:03 1951
    50  1.6069e-02  3.4787e-03  1.2850e-02  2.9551e-01  1.6069e-02  1.0816e-02  7.9456e-03  0:08:09 1950
    51  1.5865e-02  3.3530e-03  1.3200e-02  2.8457e-01  1.5869e-02  1.0599e-02  7.7157e-03  0:06:31 1949
    52  1.5694e-02  3.2354e-03  1.3652e-02  2.8333e-01  1.5702e-02  1.0881e-02  7.6798e-03  0:05:12 1948
    53  1.5582e-02  3.1380e-03  1.4181e-02  2.8545e-01  1.5592e-02  1.0939e-02  7.5582e-03  0:04:10 1947
    54  1.5541e-02  3.0593e-03  1.4732e-02  2.8803e-01  1.5550e-02  1.0757e-02  7.3207e-03  0:03:20 1946
    55  1.5601e-02  2.9733e-03  1.5322e-02  2.9078e-01  1.5607e-02  1.0479e-02  7.1741e-03  0:02:40 1945

  iter  continuity  x-velocity  y-velocity  z-velocity      energy           k       omega     time/iter
    56  1.5751e-02  2.9093e-03  1.5938e-02  2.9490e-01  1.5752e-02  1.0691e-02  7.1400e-03  0:02:08 1944
    57  1.5974e-02  2.8682e-03  1.6555e-02  2.9971e-01  1.5970e-02  1.0811e-02  7.0896e-03  0:01:42 1943
    58  1.6218e-02  2.8438e-03  1.7118e-02  3.0491e-01  1.6209e-02  1.0705e-02  7.0112e-03  0:07:50 1942
    59  1.6524e-02  2.8314e-03  1.7736e-02  3.0950e-01  1.6512e-02  1.0451e-02  6.9141e-03  0:06:16 1941
    60  1.6829e-02  2.8561e-03  1.8364e-02  3.1339e-01  1.6813e-02  1.0443e-02  6.9208e-03  0:05:01 1940
    61  1.7183e-02  2.8887e-03  1.8844e-02  3.1547e-01  1.7164e-02  1.0554e-02  6.9536e-03  0:04:00 1939
    62  1.7545e-02  2.9212e-03  1.9208e-02  3.1672e-01  1.7524e-02  1.0742e-02  6.9577e-03  0:03:12 1938
    63  1.7887e-02  2.9258e-03  1.9500e-02  3.1663e-01  1.7865e-02  1.0788e-02  6.9298e-03  0:02:34 1937
    64  1.8210e-02  2.8965e-03  1.9712e-02  3.1601e-01  1.8187e-02  1.0693e-02  6.9208e-03  0:02:03 1936
    65  1.8461e-02  2.8692e-03  1.9921e-02  3.1356e-01  1.8437e-02  1.0535e-02  6.9616e-03  0:08:05 1935
    66  1.8636e-02  2.8375e-03  2.0091e-02  3.0943e-01  1.8612e-02  1.0617e-02  6.9762e-03  0:06:28 1934

  iter  continuity  x-velocity  y-velocity  z-velocity      energy           k       omega     time/iter
    67  1.8749e-02  2.7908e-03  2.0165e-02  3.0574e-01  1.8727e-02  1.0799e-02  7.0397e-03  0:05:10 1933
    68  1.8755e-02  2.7533e-03  2.0031e-02  2.9972e-01  1.8733e-02  1.0794e-02  7.0259e-03  0:04:08 1932
    69  1.8702e-02  2.7442e-03  1.9758e-02  2.9294e-01  1.8681e-02  1.0913e-02  7.0260e-03  0:03:18 1931
    70  1.8536e-02  2.7236e-03  1.9401e-02  2.8478e-01  1.8515e-02  1.0900e-02  7.0137e-03  0:02:39 1930
    71  1.8276e-02  2.6846e-03  1.8977e-02  2.7667e-01  1.8254e-02  1.0826e-02  7.0079e-03  0:02:07 1929
    72  1.7934e-02  2.6720e-03  1.8477e-02  2.6908e-01  1.7912e-02  1.0781e-02  7.0250e-03  0:08:07 1928
    73  1.7570e-02  2.6770e-03  1.7892e-02  2.6291e-01  1.7547e-02  1.0790e-02  7.0366e-03  0:06:29 1927
    74  1.7176e-02  2.7125e-03  1.7232e-02  2.5960e-01  1.7153e-02  1.0765e-02  7.0144e-03  0:05:11 1926
    75  1.6681e-02  2.7471e-03  1.6527e-02  2.5683e-01  1.6657e-02  1.0687e-02  6.9870e-03  0:04:09 1925
    76  1.6085e-02  2.7780e-03  1.5823e-02  2.5386e-01  1.6060e-02  1.0726e-02  6.9581e-03  0:03:19 1924
    77  1.5451e-02  2.8173e-03  1.5153e-02  2.5177e-01  1.5425e-02  1.0661e-02  6.9164e-03  0:02:39 1923

  iter  continuity  x-velocity  y-velocity  z-velocity      energy           k       omega     time/iter
    78  1.4820e-02  2.8702e-03  1.4534e-02  2.5104e-01  1.4794e-02  1.0624e-02  6.8834e-03  0:02:07 1922
    79  1.4188e-02  2.9173e-03  1.3990e-02  2.5020e-01  1.4163e-02  1.0644e-02  6.8251e-03  0:08:06 1921
    80  1.3586e-02  2.9665e-03  1.3549e-02  2.5043e-01  1.3562e-02  1.0596e-02  6.7458e-03  0:06:29 1920
    81  1.3085e-02  3.0165e-03  1.3204e-02  2.5130e-01  1.3064e-02  1.0515e-02  6.6926e-03  0:05:11 1919
    82  1.2702e-02  3.0831e-03  1.2954e-02  2.5378e-01  1.2683e-02  1.0509e-02  6.5940e-03  0:04:08 1918
    83  1.2404e-02  3.1440e-03  1.2786e-02  2.5664e-01  1.2388e-02  1.0448e-02  6.5152e-03  0:03:19 1917
    84  1.2220e-02  3.1983e-03  1.2694e-02  2.6104e-01  1.2209e-02  1.0444e-02  6.4399e-03  0:02:39 1916
    85  1.2197e-02  3.2405e-03  1.2587e-02  2.6632e-01  1.2190e-02  1.0439e-02  6.3179e-03  0:02:07 1915
    86  1.2349e-02  3.2794e-03  1.2574e-02  2.7357e-01  1.2347e-02  1.0390e-02  6.2183e-03  0:08:04 1914
    87  1.2700e-02  3.3219e-03  1.2649e-02  2.8206e-01  1.2702e-02  1.0297e-02  6.1053e-03  0:06:27 1913
    88  1.3275e-02  3.3675e-03  1.2779e-02  2.9219e-01  1.3281e-02  1.0295e-02  6.0130e-03  0:05:10 1912

  iter  continuity  x-velocity  y-velocity  z-velocity      energy           k       omega     time/iter
    89  1.4058e-02  3.4066e-03  1.2947e-02  3.0403e-01  1.4067e-02  1.0245e-02  5.9337e-03  0:04:08 1911
    90  1.5045e-02  3.4488e-03  1.3143e-02  3.1754e-01  1.5058e-02  1.0108e-02  5.8923e-03  0:03:18 1910
    91  1.6336e-02  3.4835e-03  1.3343e-02  3.3278e-01  1.6352e-02  1.0064e-02  5.8364e-03  0:02:38 1909
    92  1.7993e-02  3.5096e-03  1.3537e-02  3.4929e-01  1.8012e-02  1.0011e-02  5.7886e-03  0:02:07 1908
    93  1.9299e-02  3.5294e-03  1.3722e-02  3.6664e-01  1.9319e-02  9.9628e-03  5.7368e-03  0:08:03 1907
    94  2.0310e-02  3.5385e-03  1.3891e-02  3.8442e-01  2.0332e-02  9.8675e-03  5.7020e-03  0:06:26 1906
    95  2.1299e-02  3.5416e-03  1.4037e-02  4.0106e-01  2.1322e-02  9.7661e-03  5.6735e-03  0:05:09 1905
    96  2.2226e-02  3.5380e-03  1.4157e-02  4.1680e-01  2.2249e-02  9.6593e-03  5.6419e-03  0:04:07 1904
    97  2.3072e-02  3.5295e-03  1.4247e-02  4.3170e-01  2.3095e-02  9.5856e-03  5.6202e-03  0:03:17 1903
    98  2.3844e-02  3.5261e-03  1.4299e-02  4.4515e-01  2.3868e-02  9.5489e-03  5.6214e-03  0:02:38 1902
    99  2.4513e-02  3.5285e-03  1.4311e-02  4.5750e-01  2.4538e-02  9.5073e-03  5.5857e-03  0:02:06 1901

  iter  continuity  x-velocity  y-velocity  z-velocity      energy           k       omega     time/iter
   100  2.5110e-02  3.5418e-03  1.4275e-02  4.6837e-01  2.5134e-02  9.4197e-03  5.5524e-03  0:08:01 1900
   101  2.5564e-02  3.5664e-03  1.4228e-02  4.7755e-01  2.5590e-02  9.3419e-03  5.5526e-03  0:06:24 1899
   102  2.5784e-02  3.6107e-03  1.4146e-02  4.8456e-01  2.5810e-02  9.3007e-03  5.5445e-03  0:05:07 1898
   103  2.5643e-02  3.6671e-03  1.4047e-02  4.8918e-01  2.5670e-02  9.2553e-03  5.5303e-03  0:04:06 1897
   104  2.5034e-02  3.7375e-03  1.3919e-02  4.9136e-01  2.5061e-02  9.1850e-03  5.5144e-03  0:03:17 1896
   105  2.3866e-02  3.8171e-03  1.3751e-02  4.9130e-01  2.3892e-02  9.1053e-03  5.4733e-03  0:02:37 1895
   106  2.2196e-02  3.9045e-03  1.3522e-02  4.8904e-01  2.2221e-02  9.0516e-03  5.4773e-03  0:02:06 1894
   107  2.0078e-02  3.9880e-03  1.3227e-02  4.8451e-01  2.0101e-02  9.0143e-03  5.4717e-03  0:07:59 1893
   108  1.7664e-02  4.0616e-03  1.2850e-02  4.7817e-01  1.7684e-02  9.0084e-03  5.4450e-03  0:06:23 1892
   109  1.5120e-02  4.0970e-03  1.2389e-02  4.6993e-01  1.5135e-02  8.9919e-03  5.4228e-03  0:05:06 1891
   110  1.2700e-02  4.0750e-03  1.1867e-02  4.5981e-01  1.2709e-02  8.9549e-03  5.4301e-03  0:04:05 1890

  iter  continuity  x-velocity  y-velocity  z-velocity      energy           k       omega     time/iter
   111  1.0648e-02  3.9975e-03  1.1336e-02  4.4836e-01  1.0651e-02  8.9547e-03  5.4198e-03  0:03:16 1889
   112  9.1287e-03  3.8729e-03  1.0862e-02  4.3555e-01  9.1258e-03  8.9407e-03  5.4049e-03  0:02:37 1888
   113  8.2134e-03  3.6896e-03  1.0472e-02  4.2149e-01  8.2055e-03  8.9232e-03  5.3916e-03  0:08:23 1887
   114  7.9693e-03  3.4788e-03  1.0168e-02  4.0631e-01  7.9582e-03  8.9086e-03  5.3647e-03  0:06:42 1886
   115  8.2826e-03  3.2357e-03  9.9673e-03  3.9075e-01  8.2706e-03  8.8709e-03  5.3009e-03  0:05:21 1885
   116  8.9566e-03  2.9797e-03  9.8656e-03  3.7386e-01  8.9450e-03  8.8551e-03  5.2284e-03  0:04:17 1884
   117  9.7678e-03  2.7241e-03  9.8328e-03  3.5613e-01  9.7570e-03  8.8344e-03  5.1441e-03  0:03:25 1883
   118  1.0551e-02  2.4776e-03  9.8260e-03  3.3702e-01  1.0541e-02  8.8277e-03  5.0485e-03  0:02:44 1882
   119  1.1209e-02  2.2572e-03  9.8062e-03  3.1708e-01  1.1199e-02  8.8089e-03  4.9650e-03  0:02:11 1881
   120  1.1699e-02  2.0859e-03  9.7543e-03  2.9657e-01  1.1689e-02  8.8043e-03  4.8991e-03  0:08:01 1880
   121  1.1961e-02  1.9692e-03  9.6658e-03  2.7621e-01  1.1950e-02  8.8313e-03  4.8318e-03  0:06:25 1879

  iter  continuity  x-velocity  y-velocity  z-velocity      energy           k       omega     time/iter
   122  1.2063e-02  1.9058e-03  9.5472e-03  2.5630e-01  1.2051e-02  8.8709e-03  4.7683e-03  0:05:08 1878
   123  1.2110e-02  1.8893e-03  9.4122e-03  2.3764e-01  1.2097e-02  8.9349e-03  4.7067e-03  0:04:06 1877
   124  1.2103e-02  1.8972e-03  9.2799e-03  2.2165e-01  1.2088e-02  8.9961e-03  4.6472e-03  0:03:17 1876
   125  1.2178e-02  1.9393e-03  9.1798e-03  2.0828e-01  1.2161e-02  9.0889e-03  4.6064e-03  0:02:37 1875
   126  1.2227e-02  1.9863e-03  9.1272e-03  1.9794e-01  1.2208e-02  9.1528e-03  4.5624e-03  0:08:20 1874
   127  1.2395e-02  2.0451e-03  9.1120e-03  1.9141e-01  1.2375e-02  9.2569e-03  4.5264e-03  0:06:40 1873
   128  1.2731e-02  2.1232e-03  9.1355e-03  1.8860e-01  1.2709e-02  9.3474e-03  4.4936e-03  0:05:20 1872
   129  1.3183e-02  2.2114e-03  9.2021e-03  1.8918e-01  1.3159e-02  9.4227e-03  4.4588e-03  0:04:16 1871
   130  1.3688e-02  2.3011e-03  9.3093e-03  1.9317e-01  1.3663e-02  9.4978e-03  4.4206e-03  0:03:25 1870
   131  1.4238e-02  2.3796e-03  9.4420e-03  2.0003e-01  1.4211e-02  9.5631e-03  4.3975e-03  0:02:44 1869
   132  1.4796e-02  2.4407e-03  9.5853e-03  2.0888e-01  1.4768e-02  9.6408e-03  4.3764e-03  0:08:24 1868

  iter  continuity  x-velocity  y-velocity  z-velocity      energy           k       omega     time/iter
   133  1.5312e-02  2.4888e-03  9.7256e-03  2.1825e-01  1.5282e-02  9.7090e-03  4.3519e-03  0:06:43 1867
   134  1.5758e-02  2.5191e-03  9.8622e-03  2.2757e-01  1.5727e-02  9.7508e-03  4.3300e-03  0:05:22 1866
   135  1.6126e-02  2.5375e-03  9.9916e-03  2.3666e-01  1.6094e-02  9.7859e-03  4.3131e-03  0:04:18 1865
   136  1.6378e-02  2.5419e-03  1.0123e-02  2.4530e-01  1.6345e-02  9.8256e-03  4.2939e-03  0:03:26 1864
   137  1.6524e-02  2.5415e-03  1.0265e-02  2.5321e-01  1.6489e-02  9.8424e-03  4.2860e-03  0:02:45 1863
   138  1.6579e-02  2.5384e-03  1.0419e-02  2.6017e-01  1.6544e-02  9.8663e-03  4.2666e-03  0:08:24 1862
   139  1.6529e-02  2.5304e-03  1.0577e-02  2.6628e-01  1.6493e-02  9.8819e-03  4.2352e-03  0:06:43 1861
   140  1.6381e-02  2.5141e-03  1.0739e-02  2.7124e-01  1.6345e-02  9.8850e-03  4.1886e-03  0:05:22 1860
   141  1.6106e-02  2.4961e-03  1.0906e-02  2.7494e-01  1.6069e-02  9.8542e-03  4.1392e-03  0:04:18 1859
   142  1.5729e-02  2.4750e-03  1.1076e-02  2.7730e-01  1.5692e-02  9.8220e-03  4.0911e-03  0:03:26 1858
   143  1.5289e-02  2.4524e-03  1.1247e-02  2.7846e-01  1.5253e-02  9.8069e-03  4.0296e-03  0:02:45 1857

  iter  continuity  x-velocity  y-velocity  z-velocity      energy           k       omega     time/iter
   144  1.4786e-02  2.4308e-03  1.1418e-02  2.7833e-01  1.4750e-02  9.7804e-03  3.9718e-03  0:02:12 1856
   145  1.4276e-02  2.4052e-03  1.1595e-02  2.7717e-01  1.4241e-02  9.7665e-03  3.9245e-03  0:07:56 1855
   146  1.3717e-02  2.3787e-03  1.1772e-02  2.7500e-01  1.3683e-02  9.7594e-03  3.8965e-03  0:06:21 1854
   147  1.3229e-02  2.3867e-03  1.2080e-02  2.7190e-01  1.3197e-02  9.7378e-03  3.8831e-03  0:05:05 1853
   148  1.2551e-02  2.3418e-03  1.2175e-02  2.6797e-01  1.2521e-02  9.7015e-03  3.8656e-03  0:04:03 1852
   149  1.1932e-02  2.3123e-03  1.2287e-02  2.6334e-01  1.1903e-02  9.6704e-03  3.8491e-03  0:03:15 1851
   150  1.1378e-02  2.2928e-03  1.2383e-02  2.5762e-01  1.1351e-02  9.6512e-03  3.8376e-03  0:02:36 1850
   151  1.0793e-02  2.2825e-03  1.2460e-02  2.5126e-01  1.0768e-02  9.6254e-03  3.8363e-03  0:08:14 1849
   152  1.0349e-02  2.2745e-03  1.2514e-02  2.4466e-01  1.0326e-02  9.6176e-03  3.8485e-03  0:06:35 1848
   153  1.0149e-02  2.2721e-03  1.2531e-02  2.3852e-01  1.0128e-02  9.6240e-03  3.8849e-03  0:05:16 1847
   154  1.0100e-02  2.2736e-03  1.2503e-02  2.3265e-01  1.0080e-02  9.6277e-03  3.9118e-03  0:04:13 1846

  iter  continuity  x-velocity  y-velocity  z-velocity      energy           k       omega     time/iter
   155  1.0203e-02  2.2908e-03  1.2469e-02  2.2617e-01  1.0185e-02  9.6434e-03  3.9545e-03  0:03:22 1845
   156  1.0411e-02  2.3291e-03  1.2441e-02  2.2124e-01  1.0395e-02  9.6474e-03  4.0070e-03  0:02:42 1844
   157  1.0586e-02  2.3638e-03  1.2371e-02  2.1678e-01  1.0570e-02  9.6531e-03  4.0454e-03  0:02:09 1843
   158  1.0800e-02  2.4082e-03  1.2290e-02  2.1106e-01  1.0785e-02  9.6908e-03  4.0756e-03  0:07:52 1842
   159  1.1066e-02  2.4625e-03  1.2207e-02  2.0723e-01  1.1052e-02  9.7235e-03  4.0995e-03  0:06:17 1841
   160  1.1405e-02  2.5234e-03  1.2127e-02  2.0330e-01  1.1392e-02  9.7435e-03  4.1109e-03  0:05:02 1840
   161  1.1776e-02  2.5767e-03  1.2030e-02  2.0044e-01  1.1764e-02  9.7620e-03  4.1680e-03  0:04:01 1839
   162  1.2089e-02  2.6136e-03  1.1926e-02  1.9749e-01  1.2078e-02  9.7754e-03  4.2001e-03  0:03:13 1838
   163  1.2341e-02  2.6521e-03  1.1846e-02  1.9626e-01  1.2330e-02  9.8062e-03  4.2307e-03  0:02:34 1837
   164  1.2515e-02  2.6839e-03  1.1772e-02  1.9765e-01  1.2504e-02  9.8305e-03  4.2533e-03  0:08:10 1836
   165  1.2582e-02  2.7124e-03  1.1693e-02  2.0065e-01  1.2571e-02  9.8675e-03  4.2784e-03  0:06:32 1835

  iter  continuity  x-velocity  y-velocity  z-velocity      energy           k       omega     time/iter
   166  1.2575e-02  2.7342e-03  1.1605e-02  2.0601e-01  1.2563e-02  9.9089e-03  4.3067e-03  0:05:14 1834
   167  1.2519e-02  2.7510e-03  1.1527e-02  2.1442e-01  1.2506e-02  9.9360e-03  4.3089e-03  0:04:11 1833
   168  1.2403e-02  2.7643e-03  1.1448e-02  2.3227e-01  1.2390e-02  9.9680e-03  4.3212e-03  0:03:20 1832
   169  1.2191e-02  2.7776e-03  1.1359e-02  2.6045e-01  1.2177e-02  9.9817e-03  4.3312e-03  0:02:40 1831
   170  1.1936e-02  2.7956e-03  1.1270e-02  2.8760e-01  1.1921e-02  9.9954e-03  4.3448e-03  0:02:08 1830
   171  1.1611e-02  2.8514e-03  1.1349e-02  3.2323e-01  1.1595e-02  1.0001e-02  4.3640e-03  0:07:48 1829
   172  1.1217e-02  2.7592e-03  1.0968e-02  3.7760e-01  1.1200e-02  1.0049e-02  4.3974e-03  0:06:14 1828
   173  1.1032e-02  2.7953e-03  1.0862e-02  4.5426e-01  1.1014e-02  1.0102e-02  4.4245e-03  0:04:59 1827
   174  1.0843e-02  2.8199e-03  1.0743e-02  5.6709e-01  1.0825e-02  1.0138e-02  4.4590e-03  0:03:59 1826
   175  1.0644e-02  2.8165e-03  1.0658e-02  5.0575e-01  1.0626e-02  1.0166e-02  4.4889e-03  0:03:11 1825
   176  1.0483e-02  2.8260e-03  1.0575e-02  5.2666e-01  1.0465e-02  1.0184e-02  4.5078e-03  0:02:33 1824

  iter  continuity  x-velocity  y-velocity  z-velocity      energy           k       omega     time/iter
   177  1.0343e-02  2.8327e-03  1.0470e-02  5.2514e-01  1.0325e-02  1.0201e-02  4.5276e-03  0:08:07 1823
   178  1.0266e-02  2.8456e-03  1.0408e-02  5.9057e-01  1.0247e-02  1.0245e-02  4.5442e-03  0:06:29 1822
   179  1.0251e-02  2.8548e-03  1.0356e-02  7.1420e-01  1.0233e-02  1.0282e-02  4.5489e-03  0:05:11 1821
   180  1.0226e-02  2.8591e-03  1.0296e-02  8.8988e-01  1.0208e-02  1.0305e-02  4.5550e-03  0:04:09 1820
   181  1.0183e-02  2.8581e-03  1.0258e-02  5.9303e-01  1.0166e-02  1.0328e-02  4.5578e-03  0:03:19 1819
   182  1.0142e-02  2.8498e-03  1.0230e-02  5.3388e-01  1.0125e-02  1.0361e-02  4.5603e-03  0:02:39 1818
   183  1.0097e-02  2.8399e-03  1.0189e-02  5.0304e-01  1.0080e-02  1.0374e-02  4.5850e-03  0:08:11 1817
   184  1.0063e-02  2.8324e-03  1.0139e-02  5.1877e-01  1.0047e-02  1.0365e-02  4.5985e-03  0:06:32 1816
   185  1.0050e-02  2.8258e-03  1.0119e-02  5.3038e-01  1.0034e-02  1.0377e-02  4.6163e-03  0:05:14 1815
   186  1.0053e-02  2.8218e-03  1.0088e-02  5.4949e-01  1.0038e-02  1.0392e-02  4.6267e-03  0:04:11 1814
   187  1.0077e-02  2.8227e-03  1.0083e-02  5.6743e-01  1.0063e-02  1.0427e-02  4.6202e-03  0:03:21 1813

  iter  continuity  x-velocity  y-velocity  z-velocity      energy           k       omega     time/iter
   188  1.0078e-02  2.8244e-03  1.0054e-02  5.7867e-01  1.0064e-02  1.0464e-02  4.6250e-03  0:02:40 1812
   189  1.0063e-02  2.8294e-03  1.0043e-02  5.8232e-01  1.0050e-02  1.0489e-02  4.6053e-03  0:02:08 1811
   190  1.0090e-02  2.8353e-03  1.0037e-02  5.7515e-01  1.0077e-02  1.0468e-02  4.5903e-03  0:07:44 1810
   191  1.0102e-02  2.8337e-03  1.0018e-02  5.6064e-01  1.0089e-02  1.0480e-02  4.5773e-03  0:06:11 1809
   192  1.0102e-02  2.8279e-03  1.0001e-02  5.5053e-01  1.0090e-02  1.0571e-02  4.5738e-03  0:04:57 1808
   193  1.0140e-02  2.8152e-03  9.9903e-03  5.4033e-01  1.0128e-02  1.0607e-02  4.5760e-03  0:03:57 1807
   194  1.0216e-02  2.7853e-03  9.9838e-03  5.3086e-01  1.0204e-02  1.0621e-02  4.5608e-03  0:03:10 1806
   195  1.0316e-02  2.7450e-03  9.9825e-03  5.1690e-01  1.0304e-02  1.0661e-02  4.5579e-03  0:02:32 1805
   196  1.0385e-02  2.6996e-03  9.9717e-03  5.0053e-01  1.0374e-02  1.0760e-02  4.5569e-03  0:08:02 1804
   197  1.0424e-02  2.6468e-03  9.9639e-03  4.8494e-01  1.0413e-02  1.0760e-02  4.5508e-03  0:06:26 1803
   198  1.0438e-02  2.5998e-03  9.9546e-03  4.6936e-01  1.0427e-02  1.0712e-02  4.5217e-03  0:05:08 1802

  iter  continuity  x-velocity  y-velocity  z-velocity      energy           k       omega     time/iter
   199  1.0438e-02  2.5538e-03  9.9447e-03  4.5589e-01  1.0427e-02  1.0750e-02  4.5256e-03  0:04:06 1801
   200  1.0400e-02  2.5086e-03  9.9397e-03  4.4597e-01  1.0389e-02  1.0879e-02  4.5167e-03  0:03:17 1800
   201  1.0340e-02  2.4649e-03  9.9330e-03  4.4031e-01  1.0330e-02  1.0924e-02  4.4983e-03  0:08:37 1799
   202  1.0259e-02  2.4238e-03  9.9276e-03  4.3674e-01  1.0248e-02  1.0928e-02  4.4782e-03  0:06:54 1798
   203  1.0157e-02  2.3871e-03  9.9149e-03  4.3627e-01  1.0147e-02  1.1021e-02  4.4769e-03  0:05:31 1797
   204  1.0004e-02  2.3501e-03  9.9089e-03  4.3855e-01  9.9931e-03  1.1031e-02  4.4555e-03  0:04:24 1796
   205  9.8308e-03  2.3149e-03  9.8995e-03  4.4349e-01  9.8203e-03  1.0949e-02  4.4353e-03  0:03:31 1795
   206  9.6288e-03  2.2835e-03  9.8954e-03  4.4941e-01  9.6180e-03  1.0964e-02  4.4159e-03  0:02:49 1794
   207  9.3559e-03  2.2542e-03  9.9005e-03  4.5539e-01  9.3448e-03  1.1075e-02  4.3905e-03  0:08:14 1793
   208  9.0574e-03  2.2286e-03  9.9057e-03  4.5968e-01  9.0460e-03  1.1073e-02  4.3546e-03  0:06:35 1792
   209  8.7685e-03  2.2077e-03  9.9136e-03  4.6469e-01  8.7567e-03  1.1020e-02  4.3377e-03  0:05:16 1791

  iter  continuity  x-velocity  y-velocity  z-velocity      energy           k       omega     time/iter
   210  8.4768e-03  2.1959e-03  9.9241e-03  4.6819e-01  8.4647e-03  1.1086e-02  4.3259e-03  0:04:12 1790
   211  8.1859e-03  2.1892e-03  9.9435e-03  4.6986e-01  8.1733e-03  1.1128e-02  4.2980e-03  0:03:22 1789
   212  7.8989e-03  2.1878e-03  9.9598e-03  4.6956e-01  7.8857e-03  1.1054e-02  4.2693e-03  0:08:39 1788
   213  7.6331e-03  2.1899e-03  9.9825e-03  4.6911e-01  7.6193e-03  1.0991e-02  4.2554e-03  0:06:55 1787
   214  7.3788e-03  2.1916e-03  1.0010e-02  4.6854e-01  7.3645e-03  1.1048e-02  4.2293e-03  0:05:32 1786
   215  7.1482e-03  2.1948e-03  1.0048e-02  4.6624e-01  7.1335e-03  1.1084e-02  4.2101e-03  0:04:25 1785
   216  6.9584e-03  2.2045e-03  1.0094e-02  4.6259e-01  6.9434e-03  1.0970e-02  4.1876e-03  0:03:32 1784
   217  6.7905e-03  2.2184e-03  1.0151e-02  4.5624e-01  6.7752e-03  1.0995e-02  4.1727e-03  0:02:50 1783
   218  6.6368e-03  2.2337e-03  1.0222e-02  4.4971e-01  6.6213e-03  1.1042e-02  4.1503e-03  0:08:12 1782
   219  6.4978e-03  2.2499e-03  1.0298e-02  4.4431e-01  6.4823e-03  1.1035e-02  4.1421e-03  0:06:33 1781
   220  6.3625e-03  2.2650e-03  1.0379e-02  4.3961e-01  6.3470e-03  1.0979e-02  4.1240e-03  0:05:15 1780

  iter  continuity  x-velocity  y-velocity  z-velocity      energy           k       omega     time/iter
   221  6.2361e-03  2.2815e-03  1.0470e-02  4.3403e-01  6.2207e-03  1.0952e-02  4.1010e-03  0:04:11 1779
   222  6.1266e-03  2.2983e-03  1.0571e-02  4.2876e-01  6.1112e-03  1.0990e-02  4.1015e-03  0:03:21 1778
   223  6.0113e-03  2.3132e-03  1.0679e-02  4.2348e-01  5.9959e-03  1.0963e-02  4.1102e-03  0:02:41 1777
   224  5.8923e-03  2.3222e-03  1.0792e-02  4.1896e-01  5.8768e-03  1.0920e-02  4.1212e-03  0:08:04 1776
   225  5.7823e-03  2.3272e-03  1.0905e-02  4.1864e-01  5.7667e-03  1.0900e-02  4.1228e-03  0:06:27 1775
   226  5.6821e-03  2.3359e-03  1.1012e-02  4.1845e-01  5.6665e-03  1.0938e-02  4.1117e-03  0:05:09 1774
   227  5.5714e-03  2.3448e-03  1.1114e-02  4.1368e-01  5.5559e-03  1.0929e-02  4.1112e-03  0:04:07 1773
   228  5.4534e-03  2.3550e-03  1.1211e-02  4.0376e-01  5.4381e-03  1.0830e-02  4.1144e-03  0:03:18 1772
   229  5.3783e-03  2.3648e-03  1.1308e-02  3.9485e-01  5.3632e-03  1.0817e-02  4.1161e-03  0:02:38 1771
   230  5.3150e-03  2.3724e-03  1.1404e-02  3.8950e-01  5.3002e-03  1.0790e-02  4.1059e-03  0:08:00 1770
   231  5.2959e-03  2.3789e-03  1.1492e-02  3.8312e-01  5.2813e-03  1.0779e-02  4.1040e-03  0:06:24 1769

  iter  continuity  x-velocity  y-velocity  z-velocity      energy           k       omega     time/iter
   232  5.3395e-03  2.3832e-03  1.1568e-02  3.7835e-01  5.3251e-03  1.0772e-02  4.1035e-03  0:05:07 1768
   233  5.4091e-03  2.3861e-03  1.1630e-02  3.7354e-01  5.3951e-03  1.0777e-02  4.1160e-03  0:04:06 1767
   234  5.4800e-03  2.3883e-03  1.1679e-02  3.6904e-01  5.4663e-03  1.0744e-02  4.1304e-03  0:09:10 1766
   235  5.6007e-03  2.3872e-03  1.1720e-02  3.6420e-01  5.5873e-03  1.0797e-02  4.1346e-03  0:07:19 1765
   236  5.7486e-03  2.3873e-03  1.1750e-02  3.6090e-01  5.7355e-03  1.0757e-02  4.1315e-03  0:05:51 1764
   237  5.9044e-03  2.3891e-03  1.1776e-02  3.5747e-01  5.8915e-03  1.0695e-02  4.1328e-03  0:04:41 1763
   238  6.0610e-03  2.3908e-03  1.1792e-02  3.5451e-01  6.0482e-03  1.0704e-02  4.1342e-03  0:03:45 1762
   239  6.2335e-03  2.3924e-03  1.1799e-02  3.5236e-01  6.2208e-03  1.0673e-02  4.1304e-03  0:03:00 1761
   240  6.4077e-03  2.3937e-03  1.1795e-02  3.5103e-01  6.3949e-03  1.0696e-02  4.1320e-03  0:08:16 1760
   241  6.5882e-03  2.3965e-03  1.1778e-02  3.5064e-01  6.5755e-03  1.0728e-02  4.1329e-03  0:06:36 1759
   242  6.8368e-03  2.4015e-03  1.1754e-02  3.4908e-01  6.8240e-03  1.0713e-02  4.1243e-03  0:05:17 1758

  iter  continuity  x-velocity  y-velocity  z-velocity      energy           k       omega     time/iter
   243  7.1223e-03  2.4077e-03  1.1723e-02  3.4485e-01  7.1093e-03  1.0668e-02  4.1195e-03  0:04:13 1757
   244  7.4786e-03  2.4136e-03  1.1690e-02  3.4160e-01  7.4655e-03  1.0634e-02  4.1164e-03  0:03:23 1756
   245  7.9258e-03  2.4203e-03  1.1657e-02  3.4098e-01  7.9124e-03  1.0595e-02  4.1069e-03  0:02:42 1755
   246  8.3172e-03  2.4289e-03  1.1620e-02  3.4532e-01  8.3034e-03  1.0571e-02  4.0902e-03  0:08:00 1754
   247  8.6847e-03  2.4406e-03  1.1581e-02  3.5316e-01  8.6706e-03  1.0576e-02  4.0886e-03  0:06:24 1753
   248  9.0039e-03  2.4518e-03  1.1537e-02  3.6374e-01  8.9896e-03  1.0562e-02  4.0917e-03  0:05:07 1752
   249  9.2980e-03  2.4681e-03  1.1487e-02  3.7304e-01  9.2834e-03  1.0510e-02  4.0746e-03  0:04:05 1751
   250  9.5925e-03  2.4951e-03  1.1434e-02  3.8019e-01  9.5775e-03  1.0483e-02  4.0568e-03  0:03:16 1750
   251  9.8756e-03  2.5175e-03  1.1382e-02  3.8471e-01  9.8603e-03  1.0474e-02  4.0551e-03  0:08:27 1749
   252  1.0153e-02  2.5436e-03  1.1332e-02  3.8763e-01  1.0137e-02  1.0435e-02  4.0360e-03  0:06:45 1748
   253  1.0433e-02  2.5736e-03  1.1285e-02  3.8906e-01  1.0417e-02  1.0410e-02  4.0089e-03  0:05:24 1747

  iter  continuity  x-velocity  y-velocity  z-velocity      energy           k       omega     time/iter
   254  1.0706e-02  2.6074e-03  1.1240e-02  3.9118e-01  1.0689e-02  1.0350e-02  3.9926e-03  0:04:19 1746
   255  1.0955e-02  2.6445e-03  1.1199e-02  3.9611e-01  1.0937e-02  1.0302e-02  3.9726e-03  0:03:27 1745
   256  1.1187e-02  2.6765e-03  1.1158e-02  3.9993e-01  1.1169e-02  1.0286e-02  3.9568e-03  0:02:46 1744
   257  1.1404e-02  2.7011e-03  1.1122e-02  4.0489e-01  1.1385e-02  1.0245e-02  3.9388e-03  0:08:01 1743
   258  1.1595e-02  2.7240e-03  1.1087e-02  4.1001e-01  1.1576e-02  1.0196e-02  3.9299e-03  0:06:25 1742
   259  1.1758e-02  2.7433e-03  1.1054e-02  4.1490e-01  1.1739e-02  1.0158e-02  3.9148e-03  0:05:07 1741
   260  1.1901e-02  2.7539e-03  1.1028e-02  4.2156e-01  1.1881e-02  1.0095e-02  3.8989e-03  0:04:06 1740
   261  1.2031e-02  2.7586e-03  1.1008e-02  4.2714e-01  1.2011e-02  1.0045e-02  3.8801e-03  0:03:17 1739
   262  1.2139e-02  2.7589e-03  1.0995e-02  4.3215e-01  1.2118e-02  1.0006e-02  3.8525e-03  0:02:37 1738
   263  1.2219e-02  2.7558e-03  1.0988e-02  4.3838e-01  1.2198e-02  9.9416e-03  3.8242e-03  0:07:53 1737
   264  1.2287e-02  2.7490e-03  1.0988e-02  4.4541e-01  1.2266e-02  9.8856e-03  3.7938e-03  0:06:18 1736

  iter  continuity  x-velocity  y-velocity  z-velocity      energy           k       omega     time/iter
   265  1.2332e-02  2.7366e-03  1.0997e-02  4.4954e-01  1.2310e-02  9.8438e-03  3.7623e-03  0:05:02 1735
   266  1.2350e-02  2.7227e-03  1.1013e-02  4.5369e-01  1.2327e-02  9.7912e-03  3.7289e-03  0:04:02 1734
   267  1.2344e-02  2.7104e-03  1.1034e-02  4.5681e-01  1.2321e-02  9.7651e-03  3.7121e-03  0:03:13 1733
   268  1.2319e-02  2.6954e-03  1.1062e-02  4.5867e-01  1.2296e-02  9.7177e-03  3.7020e-03  0:08:21 1732
   269  1.2286e-02  2.6787e-03  1.1097e-02  4.6181e-01  1.2263e-02  9.6753e-03  3.6830e-03  0:06:41 1731
   270  1.2230e-02  2.6582e-03  1.1140e-02  4.6725e-01  1.2207e-02  9.6014e-03  3.6701e-03  0:05:20 1730
   271  1.2154e-02  2.6337e-03  1.1193e-02  4.7557e-01  1.2131e-02  9.5731e-03  3.6447e-03  0:04:16 1729
   272  1.2050e-02  2.6048e-03  1.1252e-02  4.8389e-01  1.2027e-02  9.5262e-03  3.6057e-03  0:03:25 1728
   273  1.1939e-02  2.5702e-03  1.1324e-02  4.9010e-01  1.1916e-02  9.4871e-03  3.5699e-03  0:02:44 1727
   274  1.1799e-02  2.5337e-03  1.1403e-02  4.9456e-01  1.1777e-02  9.4497e-03  3.5475e-03  0:07:56 1726
   275  1.1637e-02  2.4952e-03  1.1485e-02  4.9651e-01  1.1615e-02  9.4009e-03  3.5074e-03  0:06:21 1725

  iter  continuity  x-velocity  y-velocity  z-velocity      energy           k       omega     time/iter
   276  1.1457e-02  2.4561e-03  1.1569e-02  4.9690e-01  1.1435e-02  9.3751e-03  3.4755e-03  0:05:04 1724
   277  1.1283e-02  2.4176e-03  1.1654e-02  4.9971e-01  1.1262e-02  9.3510e-03  3.4440e-03  0:04:03 1723
   278  1.1097e-02  2.3762e-03  1.1740e-02  5.0374e-01  1.1076e-02  9.3204e-03  3.4258e-03  0:03:15 1722
   279  1.0902e-02  2.3337e-03  1.1830e-02  5.0569e-01  1.0881e-02  9.2896e-03  3.4138e-03  0:08:20 1721
   280  1.0710e-02  2.2948e-03  1.1924e-02  5.0818e-01  1.0690e-02  9.2482e-03  3.4144e-03  0:06:40 1720
   281  1.0511e-02  2.2602e-03  1.2019e-02  5.1145e-01  1.0491e-02  9.1985e-03  3.4043e-03  0:05:19 1719
   282  1.0345e-02  2.2321e-03  1.2118e-02  5.1582e-01  1.0326e-02  9.1497e-03  3.3868e-03  0:04:15 1718
   283  1.0225e-02  2.2104e-03  1.2219e-02  5.1456e-01  1.0206e-02  9.1423e-03  3.3755e-03  0:03:24 1717
   284  9.9793e-03  2.1987e-03  1.2322e-02  5.1325e-01  9.9616e-03  9.1113e-03  3.3687e-03  0:02:43 1716
   285  9.7966e-03  2.1957e-03  1.2419e-02  5.1338e-01  9.7797e-03  9.0856e-03  3.3667e-03  0:07:54 1715
   286  9.6905e-03  2.2000e-03  1.2513e-02  5.1536e-01  9.6743e-03  9.0699e-03  3.3783e-03  0:06:19 1714

  iter  continuity  x-velocity  y-velocity  z-velocity      energy           k       omega     time/iter
   287  9.6350e-03  2.2110e-03  1.2599e-02  5.1851e-01  9.6192e-03  9.0591e-03  3.3936e-03  0:05:03 1713
   288  9.5966e-03  2.2252e-03  1.2679e-02  5.1989e-01  9.5813e-03  9.0368e-03  3.4007e-03  0:04:02 1712
   289  9.5222e-03  2.2318e-03  1.2755e-02  5.1972e-01  9.5073e-03  9.0123e-03  3.4097e-03  0:03:14 1711
   290  9.3114e-03  2.2406e-03  1.2819e-02  5.1946e-01  9.2972e-03  8.9983e-03  3.4249e-03  0:08:17 1710
   291  8.9782e-03  2.2560e-03  1.2876e-02  5.1772e-01  8.9649e-03  8.9813e-03  3.4336e-03  0:06:37 1709
   292  8.5922e-03  2.2681e-03  1.2927e-02  5.1242e-01  8.5801e-03  8.9809e-03  3.4376e-03  0:05:18 1708
   293  8.2283e-03  2.2834e-03  1.2974e-02  5.0522e-01  8.2173e-03  8.9851e-03  3.4569e-03  0:04:14 1707
   294  7.9078e-03  2.3047e-03  1.3012e-02  4.9648e-01  7.8979e-03  8.9873e-03  3.4631e-03  0:03:23 1706
   295  7.6589e-03  2.3315e-03  1.3042e-02  4.8890e-01  7.6499e-03  8.9656e-03  3.4559e-03  0:08:23 1705
   296  7.5006e-03  2.3621e-03  1.3065e-02  4.8068e-01  7.4923e-03  8.9691e-03  3.4702e-03  0:06:42 1704
   297  7.4156e-03  2.3925e-03  1.3080e-02  4.7275e-01  7.4077e-03  8.9439e-03  3.4902e-03  0:05:22 1703

  iter  continuity  x-velocity  y-velocity  z-velocity      energy           k       omega     time/iter
   298  7.3661e-03  2.4239e-03  1.3083e-02  4.6454e-01  7.3584e-03  8.9362e-03  3.4971e-03  0:04:17 1702
   299  7.3177e-03  2.4580e-03  1.3084e-02  4.5634e-01  7.3099e-03  8.9573e-03  3.5193e-03  0:09:06 1701
   300  7.2305e-03  2.4900e-03  1.3076e-02  4.4990e-01  7.2228e-03  8.9484e-03  3.5369e-03  0:07:16 1700
   301  7.0867e-03  2.5230e-03  1.3070e-02  4.4207e-01  7.0790e-03  8.9607e-03  3.5532e-03  0:05:49 1699
   302  6.9192e-03  2.5440e-03  1.3056e-02  4.3477e-01  6.9115e-03  8.9714e-03  3.5669e-03  0:04:39 1698
   303  6.7621e-03  2.5625e-03  1.3032e-02  4.2936e-01  6.7543e-03  8.9700e-03  3.5776e-03  0:03:43 1697
   304  6.6383e-03  2.5822e-03  1.2999e-02  4.2585e-01  6.6301e-03  8.9733e-03  3.5776e-03  0:08:38 1696
   305  6.5553e-03  2.6046e-03  1.2963e-02  4.2374e-01  6.5467e-03  9.0012e-03  3.5873e-03  0:06:54 1695
   306  6.5644e-03  2.6306e-03  1.2929e-02  4.2726e-01  6.5552e-03  9.0026e-03  3.5872e-03  0:05:31 1694
   307  6.6261e-03  2.6599e-03  1.2887e-02  4.3248e-01  6.6166e-03  9.0058e-03  3.6061e-03  0:04:25 1693
   308  6.6404e-03  2.6916e-03  1.2834e-02  4.3521e-01  6.6304e-03  9.0182e-03  3.6233e-03  0:03:31 1692

  iter  continuity  x-velocity  y-velocity  z-velocity      energy           k       omega     time/iter
   309  6.6385e-03  2.7219e-03  1.2773e-02  4.3938e-01  6.6279e-03  9.0128e-03  3.6332e-03  0:08:27 1691
   310  6.6849e-03  2.7516e-03  1.2707e-02  4.4282e-01  6.6737e-03  9.0323e-03  3.6436e-03  0:06:46 1690
   311  6.8127e-03  2.7811e-03  1.2644e-02  4.5487e-01  6.8008e-03  9.0484e-03  3.6520e-03  0:05:24 1689
   312  6.9995e-03  2.8065e-03  1.2576e-02  4.6926e-01  6.9872e-03  9.0804e-03  3.6678e-03  0:04:19 1688
   313  7.2169e-03  2.8236e-03  1.2470e-02  4.7598e-01  7.2043e-03  9.1302e-03  3.6932e-03  0:03:27 1687
   314  7.3814e-03  2.8357e-03  1.2360e-02  4.7890e-01  7.3683e-03  9.1368e-03  3.7188e-03  0:02:46 1686
   315  7.4552e-03  2.8441e-03  1.2273e-02  4.8656e-01  7.4416e-03  9.1410e-03  3.7344e-03  0:07:50 1685
   316  7.6329e-03  2.8649e-03  1.2208e-02  4.9679e-01  7.6191e-03  9.1758e-03  3.7424e-03  0:06:15 1684
   317  7.8170e-03  2.8917e-03  1.2122e-02  5.0769e-01  7.8030e-03  9.2052e-03  3.7477e-03  0:05:00 1683
   318  7.9771e-03  2.9204e-03  1.2039e-02  5.1429e-01  7.9628e-03  9.2122e-03  3.7598e-03  0:04:00 1682
   319  8.1675e-03  2.9428e-03  1.1961e-02  5.2386e-01  8.1527e-03  9.2284e-03  3.7720e-03  0:03:12 1681

  iter  continuity  x-velocity  y-velocity  z-velocity      energy           k       omega     time/iter
   320  8.3841e-03  2.9670e-03  1.1881e-02  5.3558e-01  8.3690e-03  9.2571e-03  3.7898e-03  0:08:09 1680
   321  8.5933e-03  2.9842e-03  1.1797e-02  5.4367e-01  8.5780e-03  9.3071e-03  3.8114e-03  0:06:31 1679
   322  8.8476e-03  3.0000e-03  1.1726e-02  5.6114e-01  8.8320e-03  9.3571e-03  3.8403e-03  0:05:13 1678
   323  9.1288e-03  3.0148e-03  1.1646e-02  5.7841e-01  9.1131e-03  9.3939e-03  3.8605e-03  0:04:10 1677
   324  9.3572e-03  3.0228e-03  1.1577e-02  5.9481e-01  9.3413e-03  9.4182e-03  3.8560e-03  0:03:20 1676
   325  9.5128e-03  3.0231e-03  1.1510e-02  6.0369e-01  9.4969e-03  9.4323e-03  3.8650e-03  0:08:15 1675
   326  9.6598e-03  3.0234e-03  1.1441e-02  6.0846e-01  9.6439e-03  9.4386e-03  3.8580e-03  0:06:36 1674
   327  9.7870e-03  3.0210e-03  1.1394e-02  6.1653e-01  9.7713e-03  9.4381e-03  3.8748e-03  0:05:16 1673
   328  9.9583e-03  3.0160e-03  1.1356e-02  6.2494e-01  9.9427e-03  9.4875e-03  3.8892e-03  0:04:13 1672
   329  1.0107e-02  3.0043e-03  1.1316e-02  6.3550e-01  1.0091e-02  9.5229e-03  3.8856e-03  0:03:22 1671
   330  1.0281e-02  2.9914e-03  1.1301e-02  6.4423e-01  1.0266e-02  9.5678e-03  3.8860e-03  0:08:16 1670

  iter  continuity  x-velocity  y-velocity  z-velocity      energy           k       omega     time/iter
   331  1.0416e-02  2.9723e-03  1.1291e-02  6.5179e-01  1.0400e-02  9.6025e-03  3.8839e-03  0:06:36 1669
   332  1.0484e-02  2.9426e-03  1.1292e-02  6.6199e-01  1.0469e-02  9.6219e-03  3.8978e-03  0:05:17 1668
   333  1.0512e-02  2.9064e-03  1.1302e-02  6.7015e-01  1.0497e-02  9.6681e-03  3.9184e-03  0:04:13 1667
   334  1.0518e-02  2.8674e-03  1.1316e-02  6.7736e-01  1.0503e-02  9.6876e-03  3.9254e-03  0:03:23 1666
   335  1.0490e-02  2.8263e-03  1.1339e-02  6.8404e-01  1.0476e-02  9.7431e-03  3.9156e-03  0:08:15 1665
   336  1.0430e-02  2.7840e-03  1.1374e-02  6.8523e-01  1.0416e-02  9.7605e-03  3.9134e-03  0:06:36 1664
   337  1.0333e-02  2.7458e-03  1.1421e-02  6.8880e-01  1.0319e-02  9.7914e-03  3.9129e-03  0:05:16 1663
   338  1.0183e-02  2.7135e-03  1.1470e-02  6.8719e-01  1.0170e-02  9.8400e-03  3.9157e-03  0:04:13 1662
   339  1.0010e-02  2.6886e-03  1.1532e-02  6.8454e-01  9.9970e-03  9.8980e-03  3.9177e-03  0:03:22 1661
   340  9.8031e-03  2.6629e-03  1.1605e-02  6.8227e-01  9.7904e-03  9.9291e-03  3.9215e-03  0:08:14 1660
   341  9.5703e-03  2.6350e-03  1.1688e-02  6.7821e-01  9.5578e-03  9.9704e-03  3.9146e-03  0:06:35 1659

  iter  continuity  x-velocity  y-velocity  z-velocity      energy           k       omega     time/iter
   342  9.3180e-03  2.6030e-03  1.1773e-02  6.7388e-01  9.3058e-03  1.0011e-02  3.9175e-03  0:05:16 1658
   343  9.0369e-03  2.5734e-03  1.1868e-02  6.7102e-01  9.0250e-03  1.0060e-02  3.9329e-03  0:04:12 1657
   344  8.7295e-03  2.5442e-03  1.1961e-02  6.6814e-01  8.7179e-03  1.0100e-02  3.9401e-03  0:08:53 1656
   345  8.4242e-03  2.5187e-03  1.2041e-02  6.6402e-01  8.4129e-03  1.0146e-02  3.9535e-03  0:07:06 1655
   346  8.1229e-03  2.4987e-03  1.2114e-02  6.6091e-01  8.1117e-03  1.0199e-02  3.9628e-03  0:05:41 1654
   347  7.8146e-03  2.4867e-03  1.2183e-02  6.5550e-01  7.8035e-03  1.0246e-02  3.9604e-03  0:04:32 1653
   348  7.5054e-03  2.4859e-03  1.2252e-02  6.4956e-01  7.4942e-03  1.0278e-02  3.9564e-03  0:03:38 1652
   349  7.2077e-03  2.4983e-03  1.2319e-02  6.4377e-01  7.1963e-03  1.0292e-02  3.9426e-03  0:08:24 1651
   350  6.9378e-03  2.5155e-03  1.2391e-02  6.4169e-01  6.9261e-03  1.0297e-02  3.9529e-03  0:06:43 1650
   351  6.6791e-03  2.5257e-03  1.2460e-02  6.3787e-01  6.6671e-03  1.0323e-02  3.9412e-03  0:05:22 1649
   352  6.4544e-03  2.5382e-03  1.2519e-02  6.3844e-01  6.4422e-03  1.0353e-02  3.9488e-03  0:04:18 1648

  iter  continuity  x-velocity  y-velocity  z-velocity      energy           k       omega     time/iter
   353  6.2300e-03  2.5508e-03  1.2572e-02  6.3939e-01  6.2177e-03  1.0412e-02  3.9695e-03  0:03:26 1647
   354  6.0569e-03  2.5632e-03  1.2612e-02  6.3984e-01  6.0445e-03  1.0461e-02  3.9815e-03  0:08:14 1646
   355  5.9149e-03  2.5785e-03  1.2641e-02  6.4150e-01  5.9023e-03  1.0484e-02  3.9925e-03  0:06:35 1645
   356  5.8021e-03  2.5931e-03  1.2666e-02  6.4367e-01  5.7894e-03  1.0503e-02  3.9985e-03  0:05:16 1644
   357  5.7289e-03  2.6118e-03  1.2689e-02  6.4717e-01  5.7161e-03  1.0493e-02  3.9982e-03  0:04:12 1643
   358  5.6968e-03  2.6349e-03  1.2711e-02  6.4765e-01  5.6838e-03  1.0469e-02  4.0171e-03  0:03:22 1642
   359  5.7034e-03  2.6657e-03  1.2727e-02  6.4670e-01  5.6903e-03  1.0476e-02  4.0454e-03  0:08:10 1641
   360  5.7177e-03  2.6970e-03  1.2735e-02  6.4617e-01  5.7045e-03  1.0486e-02  4.0617e-03  0:06:31 1640
   361  5.7396e-03  2.7139e-03  1.2732e-02  6.4339e-01  5.7264e-03  1.0493e-02  4.0728e-03  0:05:13 1639
   362  5.8230e-03  2.7320e-03  1.2723e-02  6.3501e-01  5.8099e-03  1.0538e-02  4.1009e-03  0:04:10 1638
   363  5.9277e-03  2.7498e-03  1.2709e-02  6.1949e-01  5.9147e-03  1.0578e-02  4.0953e-03  0:03:20 1637

  iter  continuity  x-velocity  y-velocity  z-velocity      energy           k       omega     time/iter
   364  6.0434e-03  2.7587e-03  1.2695e-02  6.0433e-01  6.0306e-03  1.0597e-02  4.0942e-03  0:08:07 1636
   365  6.1894e-03  2.7613e-03  1.2678e-02  5.9392e-01  6.1767e-03  1.0586e-02  4.0985e-03  0:06:29 1635
   366  6.3746e-03  2.7634e-03  1.2661e-02  5.8393e-01  6.3619e-03  1.0549e-02  4.1101e-03  0:05:11 1634
   367  6.5783e-03  2.7686e-03  1.2642e-02  5.7316e-01  6.5657e-03  1.0498e-02  4.1227e-03  0:04:09 1633
   368  6.7536e-03  2.7752e-03  1.2619e-02  5.7128e-01  6.7410e-03  1.0483e-02  4.1336e-03  0:08:45 1632
   369  6.8867e-03  2.7777e-03  1.2595e-02  5.7022e-01  6.8742e-03  1.0503e-02  4.1463e-03  0:07:00 1631
   370  7.0704e-03  2.7823e-03  1.2570e-02  5.6679e-01  7.0578e-03  1.0519e-02  4.1746e-03  0:05:36 1630
   371  7.2614e-03  2.7853e-03  1.2545e-02  5.5920e-01  7.2488e-03  1.0512e-02  4.1683e-03  0:04:29 1629
   372  7.4677e-03  2.7843e-03  1.2528e-02  5.5234e-01  7.4551e-03  1.0507e-02  4.1606e-03  0:09:00 1628
   373  7.6852e-03  2.7790e-03  1.2514e-02  5.5145e-01  7.6725e-03  1.0489e-02  4.1387e-03  0:07:12 1627
   374  7.9229e-03  2.7684e-03  1.2499e-02  5.5312e-01  7.9100e-03  1.0461e-02  4.1098e-03  0:05:45 1626

  iter  continuity  x-velocity  y-velocity  z-velocity      energy           k       omega     time/iter
   375  8.1454e-03  2.7553e-03  1.2486e-02  5.5444e-01  8.1324e-03  1.0400e-02  4.0968e-03  0:04:36 1625
   376  8.3270e-03  2.7415e-03  1.2474e-02  5.5618e-01  8.3140e-03  1.0355e-02  4.1010e-03  0:09:06 1624
   377  8.5168e-03  2.7202e-03  1.2470e-02  5.5635e-01  8.5037e-03  1.0302e-02  4.0730e-03  0:07:16 1623
   378  8.7603e-03  2.7003e-03  1.2470e-02  5.5542e-01  8.7471e-03  1.0308e-02  4.0420e-03  0:05:49 1622
   379  9.0536e-03  2.6834e-03  1.2475e-02  5.5795e-01  9.0404e-03  1.0279e-02  4.0462e-03  0:04:39 1621
   380  9.3874e-03  2.6660e-03  1.2487e-02  5.6090e-01  9.3740e-03  1.0265e-02  4.0254e-03  0:09:07 1620
   381  9.7659e-03  2.6511e-03  1.2511e-02  5.6336e-01  9.7523e-03  1.0243e-02  4.0071e-03  0:07:17 1619
   382  1.0175e-02  2.6359e-03  1.2539e-02  5.6748e-01  1.0161e-02  1.0177e-02  3.9785e-03  0:05:50 1618
   383  1.0591e-02  2.6191e-03  1.2567e-02  5.7939e-01  1.0577e-02  1.0136e-02  3.9442e-03  0:04:39 1617
   384  1.0965e-02  2.5962e-03  1.2595e-02  5.8884e-01  1.0950e-02  1.0069e-02  3.8991e-03  0:03:43 1616
   385  1.1317e-02  2.5654e-03  1.2619e-02  5.9090e-01  1.1302e-02  1.0033e-02  3.8612e-03  0:08:22 1615

  iter  continuity  x-velocity  y-velocity  z-velocity      energy           k       omega     time/iter
   386  1.1655e-02  2.5364e-03  1.2642e-02  5.9152e-01  1.1640e-02  9.9842e-03  3.8194e-03  0:06:41 1614
   387  1.1953e-02  2.5052e-03  1.2671e-02  5.9724e-01  1.1938e-02  9.9487e-03  3.7821e-03  0:05:21 1613
   388  1.2205e-02  2.4702e-03  1.2706e-02  6.0586e-01  1.2190e-02  9.9292e-03  3.7589e-03  0:04:16 1612
   389  1.2408e-02  2.4362e-03  1.2745e-02  6.1925e-01  1.2392e-02  9.9028e-03  3.7409e-03  0:03:25 1611
   390  1.2549e-02  2.4049e-03  1.2790e-02  6.3071e-01  1.2534e-02  9.8503e-03  3.7109e-03  0:08:06 1610
   391  1.2604e-02  2.3806e-03  1.2839e-02  6.4571e-01  1.2588e-02  9.7783e-03  3.6699e-03  0:06:28 1609
   392  1.2588e-02  2.3623e-03  1.2888e-02  6.5625e-01  1.2572e-02  9.7112e-03  3.6251e-03  0:05:11 1608
   393  1.2507e-02  2.3436e-03  1.2936e-02  6.6741e-01  1.2491e-02  9.6532e-03  3.5744e-03  0:04:08 1607
   394  1.2420e-02  2.3282e-03  1.2983e-02  6.8292e-01  1.2404e-02  9.6241e-03  3.5380e-03  0:03:19 1606
   395  1.2271e-02  2.3178e-03  1.3026e-02  6.8686e-01  1.2255e-02  9.5688e-03  3.5139e-03  0:08:00 1605
   396  1.2102e-02  2.3070e-03  1.3072e-02  6.9068e-01  1.2086e-02  9.5263e-03  3.4895e-03  0:06:24 1604

  iter  continuity  x-velocity  y-velocity  z-velocity      energy           k       omega     time/iter
   397  1.1952e-02  2.2922e-03  1.3119e-02  7.0122e-01  1.1936e-02  9.5147e-03  3.4397e-03  0:05:07 1603
   398  1.1818e-02  2.2762e-03  1.3168e-02  7.1598e-01  1.1802e-02  9.4996e-03  3.3978e-03  0:04:05 1602
   399  1.1700e-02  2.2594e-03  1.3218e-02  7.2624e-01  1.1684e-02  9.4966e-03  3.3595e-03  0:08:36 1601
   400  1.1593e-02  2.2449e-03  1.3273e-02  7.3325e-01  1.1577e-02  9.4770e-03  3.3268e-03  0:06:53 1600
   401  1.1458e-02  2.2345e-03  1.3328e-02  7.3826e-01  1.1443e-02  9.4516e-03  3.3059e-03  0:05:30 1599
   402  1.1299e-02  2.2244e-03  1.3387e-02  7.4203e-01  1.1283e-02  9.4679e-03  3.2890e-03  0:04:24 1598
   403  1.1159e-02  2.2144e-03  1.3445e-02  7.3563e-01  1.1144e-02  9.4558e-03  3.2770e-03  0:08:50 1597
   404  1.1003e-02  2.2075e-03  1.3498e-02  7.2443e-01  1.0988e-02  9.4491e-03  3.2648e-03  0:07:04 1596
   405  1.0841e-02  2.1981e-03  1.3545e-02  7.1362e-01  1.0827e-02  9.4319e-03  3.2502e-03  0:05:39 1595
   406  1.0674e-02  2.1874e-03  1.3586e-02  7.0180e-01  1.0660e-02  9.4316e-03  3.2362e-03  0:04:31 1594
   407  1.0544e-02  2.1772e-03  1.3621e-02  6.8976e-01  1.0531e-02  9.4444e-03  3.2195e-03  0:08:55 1593

  iter  continuity  x-velocity  y-velocity  z-velocity      energy           k       omega     time/iter
   408  1.0432e-02  2.1663e-03  1.3648e-02  6.8296e-01  1.0418e-02  9.4520e-03  3.2035e-03  0:07:08 1592
   409  1.0254e-02  2.1601e-03  1.3669e-02  6.7587e-01  1.0241e-02  9.4650e-03  3.1911e-03  0:05:42 1591
   410  1.0004e-02  2.1580e-03  1.3685e-02  6.6435e-01  9.9919e-03  9.4712e-03  3.1960e-03  0:04:34 1590
   411  9.7250e-03  2.1604e-03  1.3693e-02  6.5196e-01  9.7128e-03  9.4910e-03  3.2015e-03  0:03:39 1589
   412  9.4608e-03  2.1611e-03  1.3698e-02  6.3969e-01  9.4489e-03  9.5132e-03  3.2198e-03  0:08:12 1588
   413  9.2549e-03  2.1655e-03  1.3696e-02  6.3033e-01  9.2434e-03  9.5289e-03  3.2361e-03  0:06:34 1587
   414  9.0904e-03  2.1753e-03  1.3689e-02  6.2272e-01  9.0790e-03  9.5366e-03  3.2515e-03  0:05:15 1586
   415  8.9298e-03  2.1884e-03  1.3674e-02  6.1260e-01  8.9186e-03  9.5554e-03  3.2635e-03  0:04:12 1585
   416  8.7419e-03  2.2100e-03  1.3651e-02  6.0152e-01  8.7308e-03  9.5812e-03  3.2682e-03  0:08:38 1584
   417  8.4723e-03  2.2366e-03  1.3619e-02  5.9277e-01  8.4614e-03  9.5969e-03  3.2719e-03  0:06:54 1583
   418  8.1458e-03  2.2622e-03  1.3577e-02  5.8145e-01  8.1350e-03  9.6337e-03  3.2674e-03  0:05:31 1582

  iter  continuity  x-velocity  y-velocity  z-velocity      energy           k       omega     time/iter
   419  7.7880e-03  2.2879e-03  1.3533e-02  5.7136e-01  7.7774e-03  9.6627e-03  3.2731e-03  0:04:25 1581
   420  7.3982e-03  2.3137e-03  1.3489e-02  5.6352e-01  7.3877e-03  9.6967e-03  3.2690e-03  0:08:48 1580
   421  7.0237e-03  2.3370e-03  1.3442e-02  5.5976e-01  7.0132e-03  9.7209e-03  3.2683e-03  0:07:02 1579
   422  6.6930e-03  2.3568e-03  1.3392e-02  5.5609e-01  6.6826e-03  9.7354e-03  3.2686e-03  0:05:37 1578
   423  6.4348e-03  2.3722e-03  1.3340e-02  5.5307e-01  6.4243e-03  9.7481e-03  3.2706e-03  0:04:30 1577
   424  6.2512e-03  2.3855e-03  1.3285e-02  5.5012e-01  6.2405e-03  9.7704e-03  3.2755e-03  0:03:36 1576
   425  6.1575e-03  2.3995e-03  1.3222e-02  5.4662e-01  6.1467e-03  9.7998e-03  3.2602e-03  0:08:07 1575
   426  6.0260e-03  2.4139e-03  1.3147e-02  5.4368e-01  6.0150e-03  9.8206e-03  3.2451e-03  0:06:30 1574
   427  5.8391e-03  2.4292e-03  1.3064e-02  5.4233e-01  5.8280e-03  9.8519e-03  3.2490e-03  0:05:12 1573
   428  5.6643e-03  2.4353e-03  1.2946e-02  5.3948e-01  5.6531e-03  9.8876e-03  3.2403e-03  0:04:09 1572
   429  5.5660e-03  2.4371e-03  1.2843e-02  5.4086e-01  5.5544e-03  9.9136e-03  3.2378e-03  0:08:33 1571

  iter  continuity  x-velocity  y-velocity  z-velocity      energy           k       omega     time/iter
   430  5.5110e-03  2.4417e-03  1.2760e-02  5.5036e-01  5.4992e-03  9.9431e-03  3.2376e-03  0:06:50 1570
   431  5.3994e-03  2.4446e-03  1.2677e-02  5.5569e-01  5.3875e-03  9.9699e-03  3.2338e-03  0:05:28 1569
   432  5.2874e-03  2.4437e-03  1.2594e-02  5.5457e-01  5.2754e-03  1.0005e-02  3.2340e-03  0:04:22 1568
   433  5.1819e-03  2.4348e-03  1.2516e-02  5.5389e-01  5.1699e-03  1.0046e-02  3.2427e-03  0:08:43 1567
   434  5.1707e-03  2.4247e-03  1.2451e-02  5.5368e-01  5.1588e-03  1.0080e-02  3.2627e-03  0:06:58 1566
   435  5.1901e-03  2.4158e-03  1.2387e-02  5.5471e-01  5.1783e-03  1.0128e-02  3.2804e-03  0:05:34 1565
   436  5.2785e-03  2.4079e-03  1.2317e-02  5.5501e-01  5.2670e-03  1.0159e-02  3.3033e-03  0:09:40 1564
   437  5.3387e-03  2.4022e-03  1.2240e-02  5.6314e-01  5.3276e-03  1.0195e-02  3.3167e-03  0:07:44 1563
   438  5.3720e-03  2.3945e-03  1.2172e-02  5.6605e-01  5.3613e-03  1.0232e-02  3.3133e-03  0:06:11 1562
   439  5.5824e-03  2.3838e-03  1.2108e-02  5.7936e-01  5.5722e-03  1.0271e-02  3.3066e-03  0:10:09 1561
   440  5.8417e-03  2.3710e-03  1.2035e-02  5.9380e-01  5.8318e-03  1.0298e-02  3.3128e-03  0:08:07 1560

  iter  continuity  x-velocity  y-velocity  z-velocity      energy           k       omega     time/iter
   441  6.0843e-03  2.3577e-03  1.1971e-02  5.8820e-01  6.0747e-03  1.0331e-02  3.3124e-03  0:06:29 1559
   442  6.2933e-03  2.3458e-03  1.1919e-02  5.9796e-01  6.2841e-03  1.0365e-02  3.3227e-03  0:05:11 1558
   443  6.5211e-03  2.3294e-03  1.1866e-02  6.0411e-01  6.5122e-03  1.0388e-02  3.3262e-03  0:09:20 1557
   444  6.7745e-03  2.3100e-03  1.1813e-02  6.0328e-01  6.7657e-03  1.0414e-02  3.3287e-03  0:07:28 1556
   445  7.0144e-03  2.2937e-03  1.1771e-02  6.0037e-01  7.0057e-03  1.0454e-02  3.3322e-03  0:05:58 1555
   446  7.2196e-03  2.2797e-03  1.1719e-02  5.9945e-01  7.2110e-03  1.0492e-02  3.3463e-03  0:04:46 1554
   447  7.3804e-03  2.2682e-03  1.1668e-02  5.9742e-01  7.3719e-03  1.0536e-02  3.3558e-03  0:03:49 1553
   448  7.5044e-03  2.2651e-03  1.1618e-02  5.9454e-01  7.4959e-03  1.0559e-02  3.3613e-03  0:08:13 1552
   449  7.6450e-03  2.2630e-03  1.1562e-02  5.9441e-01  7.6365e-03  1.0588e-02  3.3627e-03  0:06:34 1551
   450  7.7904e-03  2.2588e-03  1.1510e-02  5.9502e-01  7.7817e-03  1.0601e-02  3.3584e-03  0:05:15 1550
   451  7.9624e-03  2.2541e-03  1.1457e-02  5.9270e-01  7.9535e-03  1.0608e-02  3.3484e-03  0:04:12 1549

  iter  continuity  x-velocity  y-velocity  z-velocity      energy           k       omega     time/iter
   452  8.1421e-03  2.2487e-03  1.1412e-02  5.9258e-01  8.1331e-03  1.0623e-02  3.3494e-03  0:08:31 1548
   453  8.2755e-03  2.2384e-03  1.1380e-02  5.9257e-01  8.2662e-03  1.0650e-02  3.3483e-03  0:06:49 1547
   454  8.3406e-03  2.2230e-03  1.1346e-02  5.9058e-01  8.3311e-03  1.0688e-02  3.3464e-03  0:05:27 1546
   455  8.3891e-03  2.2054e-03  1.1319e-02  5.8948e-01  8.3794e-03  1.0709e-02  3.3500e-03  0:04:21 1545
   456  8.4335e-03  2.1878e-03  1.1298e-02  5.9238e-01  8.4235e-03  1.0719e-02  3.3560e-03  0:08:38 1544
   457  8.4708e-03  2.1696e-03  1.1276e-02  5.9635e-01  8.4607e-03  1.0738e-02  3.3579e-03  0:06:54 1543
   458  8.4963e-03  2.1497e-03  1.1258e-02  5.9950e-01  8.4861e-03  1.0738e-02  3.3585e-03  0:05:31 1542
   459  8.4977e-03  2.1287e-03  1.1238e-02  5.9814e-01  8.4874e-03  1.0737e-02  3.3614e-03  0:04:25 1541
   460  8.4637e-03  2.1129e-03  1.1225e-02  5.9592e-01  8.4533e-03  1.0722e-02  3.3649e-03  0:08:39 1540
   461  8.3885e-03  2.1064e-03  1.1211e-02  5.9540e-01  8.3782e-03  1.0735e-02  3.3694e-03  0:06:55 1539
   462  8.2752e-03  2.1017e-03  1.1197e-02  5.9419e-01  8.2648e-03  1.0744e-02  3.3813e-03  0:05:32 1538

  iter  continuity  x-velocity  y-velocity  z-velocity      energy           k       omega     time/iter
   463  8.1372e-03  2.0991e-03  1.1187e-02  5.9114e-01  8.1270e-03  1.0746e-02  3.3964e-03  0:04:25 1537
   464  7.9835e-03  2.0942e-03  1.1183e-02  5.8328e-01  7.9734e-03  1.0760e-02  3.4020e-03  0:08:39 1536
   465  7.8045e-03  2.0873e-03  1.1185e-02  5.7608e-01  7.7945e-03  1.0751e-02  3.4076e-03  0:06:55 1535
   466  7.6299e-03  2.0826e-03  1.1195e-02  5.6698e-01  7.6201e-03  1.0732e-02  3.3997e-03  0:05:32 1534
   467  7.4372e-03  2.0804e-03  1.1213e-02  5.5780e-01  7.4275e-03  1.0718e-02  3.3967e-03  0:04:25 1533
   468  7.2394e-03  2.0765e-03  1.1237e-02  5.5109e-01  7.2300e-03  1.0697e-02  3.4016e-03  0:03:32 1532
   469  7.0509e-03  2.0749e-03  1.1257e-02  5.4245e-01  7.0417e-03  1.0673e-02  3.4110e-03  0:07:56 1531
   470  6.8592e-03  2.0761e-03  1.1271e-02  5.3192e-01  6.8502e-03  1.0682e-02  3.4171e-03  0:06:20 1530
   471  6.6737e-03  2.0788e-03  1.1283e-02  5.2211e-01  6.6650e-03  1.0677e-02  3.4185e-03  0:05:04 1529
   472  6.5024e-03  2.0815e-03  1.1286e-02  5.1355e-01  6.4939e-03  1.0666e-02  3.4308e-03  0:04:03 1528
   473  6.3448e-03  2.0848e-03  1.1284e-02  5.0668e-01  6.3366e-03  1.0649e-02  3.4374e-03  0:08:20 1527

  iter  continuity  x-velocity  y-velocity  z-velocity      energy           k       omega     time/iter
   474  6.1902e-03  2.0906e-03  1.1278e-02  5.0446e-01  6.1821e-03  1.0633e-02  3.4461e-03  0:06:40 1526
   475  6.0310e-03  2.0991e-03  1.1277e-02  5.0337e-01  6.0230e-03  1.0617e-02  3.4449e-03  0:05:19 1525
   476  5.8724e-03  2.1087e-03  1.1274e-02  5.0002e-01  5.8644e-03  1.0590e-02  3.4455e-03  0:04:15 1524
   477  5.7260e-03  2.1223e-03  1.1272e-02  4.9414e-01  5.7182e-03  1.0564e-02  3.4494e-03  0:03:24 1523
   478  5.5995e-03  2.1358e-03  1.1271e-02  4.9376e-01  5.5917e-03  1.0538e-02  3.4481e-03  0:07:48 1522
   479  5.5030e-03  2.1531e-03  1.1267e-02  4.9501e-01  5.4951e-03  1.0508e-02  3.4482e-03  0:06:14 1521
   480  5.4126e-03  2.1698e-03  1.1258e-02  4.9931e-01  5.4047e-03  1.0477e-02  3.4530e-03  0:04:59 1520
   481  5.3306e-03  2.1880e-03  1.1242e-02  5.0623e-01  5.3227e-03  1.0475e-02  3.4488e-03  0:03:59 1519
   482  5.2629e-03  2.2095e-03  1.1219e-02  5.1382e-01  5.2549e-03  1.0470e-02  3.4484e-03  0:08:15 1518
   483  5.2061e-03  2.2323e-03  1.1184e-02  5.2367e-01  5.1979e-03  1.0431e-02  3.4594e-03  0:06:35 1517
   484  5.1653e-03  2.2543e-03  1.1141e-02  5.3756e-01  5.1569e-03  1.0395e-02  3.4839e-03  0:05:16 1516

  iter  continuity  x-velocity  y-velocity  z-velocity      energy           k       omega     time/iter
   485  5.1317e-03  2.2742e-03  1.1095e-02  5.5377e-01  5.1231e-03  1.0378e-02  3.5088e-03  0:04:13 1515
   486  5.0861e-03  2.2893e-03  1.1049e-02  5.6781e-01  5.0774e-03  1.0364e-02  3.5211e-03  0:08:25 1514
   487  5.0420e-03  2.3033e-03  1.1002e-02  5.7643e-01  5.0331e-03  1.0323e-02  3.5475e-03  0:06:44 1513
   488  5.0021e-03  2.3161e-03  1.0957e-02  5.7979e-01  4.9930e-03  1.0308e-02  3.5618e-03  0:05:23 1512
   489  5.0001e-03  2.3288e-03  1.0914e-02  5.8179e-01  4.9909e-03  1.0294e-02  3.5652e-03  0:04:18 1511
   490  5.0064e-03  2.3369e-03  1.0870e-02  5.8181e-01  4.9970e-03  1.0281e-02  3.5738e-03  0:08:28 1510
   491  5.0274e-03  2.3402e-03  1.0823e-02  5.8030e-01  5.0178e-03  1.0272e-02  3.5912e-03  0:06:46 1509
   492  5.0719e-03  2.3416e-03  1.0775e-02  5.8357e-01  5.0621e-03  1.0268e-02  3.5954e-03  0:05:25 1508
   493  5.1377e-03  2.3413e-03  1.0724e-02  5.8806e-01  5.1277e-03  1.0261e-02  3.6032e-03  0:04:20 1507
   494  5.2268e-03  2.3393e-03  1.0678e-02  5.9232e-01  5.2168e-03  1.0244e-02  3.6069e-03  0:08:29 1506
   495  5.3269e-03  2.3368e-03  1.0636e-02  6.0129e-01  5.3168e-03  1.0217e-02  3.6173e-03  0:06:47 1505

  iter  continuity  x-velocity  y-velocity  z-velocity      energy           k       omega     time/iter
   496  5.4242e-03  2.3324e-03  1.0596e-02  6.1407e-01  5.4141e-03  1.0181e-02  3.6241e-03  0:05:25 1504
   497  5.5146e-03  2.3225e-03  1.0565e-02  6.2420e-01  5.5046e-03  1.0141e-02  3.6197e-03  0:04:20 1503
   498  5.6011e-03  2.3037e-03  1.0541e-02  6.3287e-01  5.5911e-03  1.0108e-02  3.6233e-03  0:08:28 1502
   499  5.7113e-03  2.2798e-03  1.0526e-02  6.3782e-01  5.7013e-03  1.0075e-02  3.6313e-03  0:06:46 1501
   500  5.8162e-03  2.2527e-03  1.0519e-02  6.4550e-01  5.8061e-03  1.0062e-02  3.6311e-03  0:05:25 1500
   501  5.9199e-03  2.2231e-03  1.0516e-02  6.5349e-01  5.9098e-03  1.0059e-02  3.6220e-03  0:04:20 1499
   502  6.0292e-03  2.1935e-03  1.0514e-02  6.5645e-01  6.0189e-03  1.0042e-02  3.6184e-03  0:08:27 1498
   503  6.1604e-03  2.1635e-03  1.0517e-02  6.5661e-01  6.1501e-03  1.0030e-02  3.6212e-03  0:06:46 1497
   504  6.2984e-03  2.1324e-03  1.0529e-02  6.5248e-01  6.2879e-03  1.0018e-02  3.6310e-03  0:05:24 1496
   505  6.4249e-03  2.1022e-03  1.0545e-02  6.4800e-01  6.4143e-03  1.0017e-02  3.6149e-03  0:09:18 1495
   506  6.5429e-03  2.0810e-03  1.0564e-02  6.4942e-01  6.5323e-03  1.0010e-02  3.6013e-03  0:07:26 1494

  iter  continuity  x-velocity  y-velocity  z-velocity      energy           k       omega     time/iter
   507  6.6380e-03  2.0756e-03  1.0591e-02  6.5334e-01  6.6274e-03  9.9938e-03  3.5987e-03  0:05:57 1493
   508  6.7451e-03  2.0739e-03  1.0625e-02  6.5659e-01  6.7345e-03  9.9667e-03  3.5894e-03  0:09:44 1492
   509  6.8707e-03  2.0730e-03  1.0667e-02  6.5803e-01  6.8601e-03  9.9432e-03  3.5873e-03  0:07:47 1491
   510  7.0063e-03  2.0700e-03  1.0719e-02  6.5887e-01  6.9957e-03  9.9098e-03  3.5775e-03  0:06:13 1490
   511  7.1415e-03  2.0639e-03  1.0778e-02  6.5855e-01  7.1309e-03  9.8879e-03  3.5836e-03  0:04:58 1489
   512  7.2831e-03  2.0525e-03  1.0842e-02  6.6122e-01  7.2724e-03  9.8870e-03  3.5785e-03  0:08:56 1488
   513  7.4635e-03  2.0403e-03  1.0908e-02  6.6528e-01  7.4528e-03  9.8823e-03  3.5640e-03  0:07:09 1487
   514  7.6448e-03  2.0285e-03  1.0977e-02  6.7154e-01  7.6339e-03  9.8881e-03  3.5543e-03  0:05:43 1486
   515  7.8480e-03  2.0194e-03  1.1050e-02  6.7811e-01  7.8370e-03  9.9091e-03  3.5420e-03  0:04:34 1485
   516  8.0408e-03  2.0137e-03  1.1126e-02  6.8602e-01  8.0298e-03  9.9261e-03  3.5271e-03  0:08:36 1484
   517  8.2131e-03  2.0114e-03  1.1202e-02  6.9348e-01  8.2021e-03  9.9297e-03  3.5188e-03  0:06:52 1483

  iter  continuity  x-velocity  y-velocity  z-velocity      energy           k       omega     time/iter
   518  8.3650e-03  2.0095e-03  1.1278e-02  7.0079e-01  8.3542e-03  9.9337e-03  3.5066e-03  0:05:30 1482
   519  8.5159e-03  2.0102e-03  1.1356e-02  7.0153e-01  8.5051e-03  9.9355e-03  3.4947e-03  0:04:24 1481
   520  8.6276e-03  2.0196e-03  1.1433e-02  6.9504e-01  8.6168e-03  9.9492e-03  3.4888e-03  0:08:27 1480
   521  8.7078e-03  2.0366e-03  1.1510e-02  6.8636e-01  8.6971e-03  9.9659e-03  3.4809e-03  0:06:45 1479
   522  8.7667e-03  2.0504e-03  1.1586e-02  6.8069e-01  8.7560e-03  9.9692e-03  3.4704e-03  0:05:24 1478
   523  8.7914e-03  2.0595e-03  1.1662e-02  6.8098e-01  8.7807e-03  9.9657e-03  3.4671e-03  0:04:19 1477
   524  8.7846e-03  2.0633e-03  1.1738e-02  6.8499e-01  8.7739e-03  9.9735e-03  3.4683e-03  0:08:22 1476
   525  8.7569e-03  2.0622e-03  1.1816e-02  6.8972e-01  8.7461e-03  9.9880e-03  3.4656e-03  0:06:41 1475
   526  8.7195e-03  2.0577e-03  1.1898e-02  6.9558e-01  8.7087e-03  1.0017e-02  3.4568e-03  0:05:21 1474
   527  8.6381e-03  2.0498e-03  1.1982e-02  7.0507e-01  8.6273e-03  1.0036e-02  3.4455e-03  0:09:11 1473
   528  8.5636e-03  2.0389e-03  1.2063e-02  7.1469e-01  8.5528e-03  1.0044e-02  3.4365e-03  0:07:21 1472

  iter  continuity  x-velocity  y-velocity  z-velocity      energy           k       omega     time/iter
   529  8.4364e-03  2.0249e-03  1.2138e-02  7.2315e-01  8.4258e-03  1.0057e-02  3.4315e-03  0:05:52 1471
   530  8.2932e-03  2.0145e-03  1.2202e-02  7.2886e-01  8.2827e-03  1.0073e-02  3.4255e-03  0:04:42 1470
   531  8.1209e-03  2.0086e-03  1.2255e-02  7.2713e-01  8.1106e-03  1.0075e-02  3.4172e-03  0:08:39 1469
   532  7.9397e-03  2.0051e-03  1.2294e-02  7.2832e-01  7.9297e-03  1.0052e-02  3.4106e-03  0:06:55 1468
   533  7.7523e-03  2.0020e-03  1.2320e-02  7.2488e-01  7.7427e-03  1.0048e-02  3.4183e-03  0:05:32 1467
   534  7.5533e-03  1.9979e-03  1.2337e-02  7.2411e-01  7.5440e-03  1.0040e-02  3.4271e-03  0:04:25 1466
   535  7.3505e-03  1.9916e-03  1.2347e-02  7.2365e-01  7.3416e-03  1.0031e-02  3.4330e-03  0:08:25 1465
   536  7.1524e-03  1.9836e-03  1.2356e-02  7.2436e-01  7.1439e-03  1.0015e-02  3.4540e-03  0:06:44 1464
   537  6.9530e-03  1.9773e-03  1.2360e-02  7.2769e-01  6.9448e-03  9.9997e-03  3.4681e-03  0:05:23 1463
   538  6.7625e-03  1.9706e-03  1.2362e-02  7.3266e-01  6.7546e-03  1.0004e-02  3.4780e-03  0:04:18 1462
   539  6.6069e-03  1.9594e-03  1.2362e-02  7.3814e-01  6.5995e-03  1.0014e-02  3.4849e-03  0:03:26 1461

  iter  continuity  x-velocity  y-velocity  z-velocity      energy           k       omega     time/iter
   540  6.4981e-03  1.9539e-03  1.2355e-02  7.4518e-01  6.4909e-03  1.0031e-02  3.5034e-03  0:07:37 1460
   541  6.4139e-03  1.9514e-03  1.2338e-02  7.5022e-01  6.4070e-03  1.0037e-02  3.5224e-03  0:06:05 1459
   542  6.3446e-03  1.9517e-03  1.2312e-02  7.5567e-01  6.3378e-03  1.0033e-02  3.5395e-03  0:04:52 1458
   543  6.2957e-03  1.9582e-03  1.2273e-02  7.6167e-01  6.2890e-03  1.0030e-02  3.5518e-03  0:03:53 1457
   544  6.2863e-03  1.9697e-03  1.2224e-02  7.6674e-01  6.2795e-03  1.0009e-02  3.5617e-03  0:07:58 1456
   545  6.3182e-03  1.9880e-03  1.2172e-02  7.6534e-01  6.3112e-03  9.9839e-03  3.5792e-03  0:06:22 1455
   546  6.3708e-03  2.0118e-03  1.2115e-02  7.6083e-01  6.3635e-03  9.9552e-03  3.5976e-03  0:05:05 1454
   547  6.4478e-03  2.0383e-03  1.2056e-02  7.5828e-01  6.4401e-03  9.9087e-03  3.6063e-03  0:08:55 1453
   548  6.5459e-03  2.0674e-03  1.1996e-02  7.5506e-01  6.5378e-03  9.9195e-03  3.6209e-03  0:07:08 1452
   549  6.6416e-03  2.0944e-03  1.1946e-02  7.5127e-01  6.6331e-03  9.9375e-03  3.6264e-03  0:05:42 1451
   550  6.7462e-03  2.1277e-03  1.1898e-02  7.5091e-01  6.7374e-03  9.9476e-03  3.6476e-03  0:04:33 1450

  iter  continuity  x-velocity  y-velocity  z-velocity      energy           k       omega     time/iter
   551  6.8422e-03  2.1654e-03  1.1841e-02  7.5444e-01  6.8330e-03  9.9274e-03  3.6673e-03  0:08:28 1449
   552  6.9531e-03  2.2066e-03  1.1773e-02  7.6576e-01  6.9435e-03  9.9242e-03  3.6788e-03  0:06:46 1448
   553  7.0815e-03  2.2478e-03  1.1698e-02  7.7973e-01  7.0715e-03  9.9204e-03  3.6844e-03  0:05:25 1447
   554  7.2247e-03  2.2809e-03  1.1575e-02  7.9577e-01  7.2144e-03  9.9065e-03  3.6801e-03  0:04:20 1446
   555  7.3483e-03  2.3126e-03  1.1482e-02  8.0093e-01  7.3374e-03  9.8976e-03  3.6764e-03  0:08:17 1445
   556  7.4448e-03  2.3501e-03  1.1400e-02  8.1664e-01  7.4336e-03  9.8768e-03  3.6620e-03  0:06:37 1444
   557  7.5430e-03  2.3852e-03  1.1324e-02  8.3129e-01  7.5314e-03  9.8474e-03  3.6610e-03  0:05:17 1443
   558  7.6582e-03  2.4147e-03  1.1257e-02  8.4356e-01  7.6463e-03  9.8323e-03  3.6744e-03  0:04:14 1442
   559  7.7550e-03  2.4360e-03  1.1205e-02  8.5912e-01  7.7429e-03  9.8502e-03  3.7024e-03  0:08:11 1441
   560  7.8540e-03  2.4602e-03  1.1156e-02  8.7736e-01  7.8418e-03  9.8657e-03  3.7192e-03  0:06:33 1440
   561  7.9473e-03  2.4885e-03  1.1112e-02  8.9189e-01  7.9350e-03  9.8656e-03  3.7147e-03  0:05:14 1439

  iter  continuity  x-velocity  y-velocity  z-velocity      energy           k       omega     time/iter
   562  8.0316e-03  2.5127e-03  1.1057e-02  9.2176e-01  8.0192e-03  9.8844e-03  3.7241e-03  0:04:11 1438
   563  8.1528e-03  2.5331e-03  1.1001e-02  9.4069e-01  8.1405e-03  9.8803e-03  3.7255e-03  0:08:08 1437
   564  8.2730e-03  2.5503e-03  1.0953e-02  9.6946e-01  8.2606e-03  9.8768e-03  3.7264e-03  0:06:30 1436
   565  8.3558e-03  2.5650e-03  1.0894e-02  9.7144e-01  8.3434e-03  9.8693e-03  3.7261e-03  0:05:12 1435
   566  8.4781e-03  2.5736e-03  1.0839e-02  9.9097e-01  8.4658e-03  9.8637e-03  3.7241e-03  0:08:56 1434
   567  8.6136e-03  2.5783e-03  1.0797e-02  1.0249e+00  8.6013e-03  9.8471e-03  3.7081e-03  0:07:09 1433
   568  8.7233e-03  2.5757e-03  1.0757e-02  1.0453e+00  8.7110e-03  9.8202e-03  3.6841e-03  0:05:43 1432
   569  8.8161e-03  2.5656e-03  1.0738e-02  1.0750e+00  8.8039e-03  9.8349e-03  3.6669e-03  0:04:34 1431
   570  8.9251e-03  2.5516e-03  1.0739e-02  1.0986e+00  8.9129e-03  9.8536e-03  3.6469e-03  0:08:25 1430
   571  9.0137e-03  2.5355e-03  1.0738e-02  1.1166e+00  9.0016e-03  9.8861e-03  3.6293e-03  0:06:44 1429
   572  9.0918e-03  2.5200e-03  1.0743e-02  1.1387e+00  9.0797e-03  9.8891e-03  3.6098e-03  0:05:23 1428

  iter  continuity  x-velocity  y-velocity  z-velocity      energy           k       omega     time/iter
   573  9.1326e-03  2.5061e-03  1.0744e-02  1.1744e+00  9.1206e-03  9.8982e-03  3.5855e-03  0:09:03 1427
   574  9.1354e-03  2.4906e-03  1.0743e-02  1.1874e+00  9.1236e-03  9.8755e-03  3.5600e-03  0:07:14 1426
   575  9.0634e-03  2.4678e-03  1.0752e-02  1.1874e+00  9.0519e-03  9.8498e-03  3.5314e-03  0:05:47 1425
   576  8.9585e-03  2.4383e-03  1.0771e-02  1.1814e+00  8.9472e-03  9.8263e-03  3.5123e-03  0:09:22 1424
   577  8.8366e-03  2.4019e-03  1.0798e-02  1.1851e+00  8.8255e-03  9.8042e-03  3.4933e-03  0:07:30 1423
   578  8.6946e-03  2.3645e-03  1.0833e-02  1.1903e+00  8.6837e-03  9.8029e-03  3.4777e-03  0:05:59 1422
   579  8.5269e-03  2.3269e-03  1.0876e-02  1.2005e+00  8.5160e-03  9.8060e-03  3.4528e-03  0:04:47 1421
   580  8.3431e-03  2.2895e-03  1.0923e-02  1.2030e+00  8.3323e-03  9.7882e-03  3.4171e-03  0:08:34 1420
   581  8.1318e-03  2.2521e-03  1.0976e-02  1.2062e+00  8.1210e-03  9.7662e-03  3.3920e-03  0:06:51 1419
   582  7.8940e-03  2.2111e-03  1.1034e-02  1.2041e+00  7.8834e-03  9.7468e-03  3.3630e-03  0:05:28 1418
   583  7.6549e-03  2.1643e-03  1.1097e-02  1.2009e+00  7.6445e-03  9.7243e-03  3.3520e-03  0:04:22 1417

  iter  continuity  x-velocity  y-velocity  z-velocity      energy           k       omega     time/iter
   584  7.3977e-03  2.1215e-03  1.1154e-02  1.2008e+00  7.3875e-03  9.7064e-03  3.3388e-03  0:08:13 1416
   585  7.1219e-03  2.0843e-03  1.1199e-02  1.2001e+00  7.1119e-03  9.6884e-03  3.3374e-03  0:06:34 1415
   586  6.8582e-03  2.0531e-03  1.1234e-02  1.1938e+00  6.8483e-03  9.6629e-03  3.3232e-03  0:05:15 1414
   587  6.6117e-03  2.0297e-03  1.1259e-02  1.1877e+00  6.6020e-03  9.6559e-03  3.3107e-03  0:08:54 1413
   588  6.3753e-03  2.0119e-03  1.1275e-02  1.1819e+00  6.3656e-03  9.6561e-03  3.2951e-03  0:07:07 1412
   589  6.1555e-03  1.9970e-03  1.1283e-02  1.1747e+00  6.1457e-03  9.6371e-03  3.2900e-03  0:05:42 1411
   590  5.9665e-03  1.9861e-03  1.1292e-02  1.1648e+00  5.9566e-03  9.6040e-03  3.2829e-03  0:04:33 1410
   591  5.8084e-03  1.9825e-03  1.1303e-02  1.1562e+00  5.7983e-03  9.5622e-03  3.2800e-03  0:08:20 1409
   592  5.6932e-03  1.9815e-03  1.1321e-02  1.1501e+00  5.6829e-03  9.5096e-03  3.2793e-03  0:06:40 1408
   593  5.5907e-03  1.9799e-03  1.1340e-02  1.1457e+00  5.5803e-03  9.4600e-03  3.2862e-03  0:05:20 1407
   594  5.5135e-03  1.9721e-03  1.1354e-02  1.1419e+00  5.5030e-03  9.4112e-03  3.3040e-03  0:08:57 1406

  iter  continuity  x-velocity  y-velocity  z-velocity      energy           k       omega     time/iter
   595  5.4954e-03  1.9737e-03  1.1362e-02  1.1338e+00  5.4850e-03  9.3636e-03  3.3103e-03  0:07:09 1405
   596  5.5145e-03  1.9888e-03  1.1358e-02  1.1186e+00  5.5042e-03  9.3452e-03  3.3064e-03  0:05:43 1404
   597  5.5510e-03  2.0101e-03  1.1340e-02  1.1047e+00  5.5408e-03  9.3107e-03  3.3121e-03  0:09:15 1403
   598  5.6241e-03  2.0342e-03  1.1310e-02  1.0897e+00  5.6140e-03  9.2953e-03  3.3351e-03  0:07:24 1402
   599  5.7447e-03  2.0608e-03  1.1271e-02  1.0803e+00  5.7347e-03  9.2565e-03  3.3527e-03  0:05:55 1401
   600  5.9039e-03  2.0929e-03  1.1230e-02  1.0806e+00  5.8940e-03  9.2225e-03  3.3682e-03  0:04:43 1400
   601  6.0815e-03  2.1296e-03  1.1193e-02  1.0777e+00  6.0716e-03  9.1974e-03  3.3705e-03  0:08:26 1399
   602  6.2424e-03  2.1684e-03  1.1158e-02  1.0735e+00  6.2325e-03  9.1691e-03  3.3849e-03  0:06:45 1398
   603  6.3970e-03  2.2038e-03  1.1124e-02  1.0698e+00  6.3873e-03  9.1465e-03  3.4189e-03  0:05:24 1397
   604  6.6024e-03  2.2400e-03  1.1085e-02  1.0685e+00  6.5926e-03  9.1270e-03  3.4296e-03  0:04:19 1396
   605  6.8274e-03  2.2756e-03  1.1042e-02  1.0627e+00  6.8177e-03  9.0918e-03  3.4409e-03  0:08:06 1395

  iter  continuity  x-velocity  y-velocity  z-velocity      energy           k       omega     time/iter
   606  7.0771e-03  2.3064e-03  1.0994e-02  1.0549e+00  7.0674e-03  9.0573e-03  3.4470e-03  0:06:28 1394
   607  7.3330e-03  2.3383e-03  1.0942e-02  1.0492e+00  7.3233e-03  9.0287e-03  3.4405e-03  0:05:10 1393
   608  7.5944e-03  2.3684e-03  1.0889e-02  1.0379e+00  7.5847e-03  8.9934e-03  3.4470e-03  0:08:47 1392
   609  7.8452e-03  2.3960e-03  1.0829e-02  1.0306e+00  7.8353e-03  8.9572e-03  3.4570e-03  0:07:01 1391
   610  8.0627e-03  2.4171e-03  1.0768e-02  1.0303e+00  8.0528e-03  8.9095e-03  3.4535e-03  0:05:37 1390
   611  8.2196e-03  2.4277e-03  1.0703e-02  1.0333e+00  8.2096e-03  8.8714e-03  3.4445e-03  0:04:29 1389
   612  8.3426e-03  2.4306e-03  1.0640e-02  1.0239e+00  8.3325e-03  8.8394e-03  3.4376e-03  0:08:13 1388
   613  8.4276e-03  2.4289e-03  1.0583e-02  1.0121e+00  8.4173e-03  8.7950e-03  3.4281e-03  0:06:34 1387
   614  8.5093e-03  2.4216e-03  1.0531e-02  1.0043e+00  8.4988e-03  8.7656e-03  3.4111e-03  0:05:15 1386
   615  8.5925e-03  2.4086e-03  1.0480e-02  1.0027e+00  8.5818e-03  8.7557e-03  3.4050e-03  0:08:49 1385
   616  8.6786e-03  2.3885e-03  1.0435e-02  1.0063e+00  8.6675e-03  8.7311e-03  3.3828e-03  0:07:03 1384

  iter  continuity  x-velocity  y-velocity  z-velocity      energy           k       omega     time/iter
   617  8.7619e-03  2.3618e-03  1.0398e-02  1.0012e+00  8.7505e-03  8.7078e-03  3.3730e-03  0:05:38 1383
   618  8.8528e-03  2.3285e-03  1.0366e-02  1.0075e+00  8.8411e-03  8.6795e-03  3.3610e-03  0:04:30 1382
   619  8.9452e-03  2.2917e-03  1.0334e-02  1.0142e+00  8.9334e-03  8.6461e-03  3.3427e-03  0:08:12 1381
   620  9.0145e-03  2.2547e-03  1.0300e-02  1.0170e+00  9.0026e-03  8.6168e-03  3.3143e-03  0:06:33 1380
   621  9.0923e-03  2.2230e-03  1.0265e-02  1.0202e+00  9.0803e-03  8.5842e-03  3.2985e-03  0:05:15 1379
   622  9.2001e-03  2.1909e-03  1.0236e-02  1.0244e+00  9.1879e-03  8.5603e-03  3.2796e-03  0:08:47 1378
   623  9.3689e-03  2.1558e-03  1.0214e-02  1.0328e+00  9.3566e-03  8.5392e-03  3.2544e-03  0:07:01 1377
   624  9.5186e-03  2.1180e-03  1.0200e-02  1.0457e+00  9.5061e-03  8.5114e-03  3.2260e-03  0:05:37 1376
   625  9.6864e-03  2.0779e-03  1.0194e-02  1.0517e+00  9.6737e-03  8.4804e-03  3.1918e-03  0:09:04 1375
   626  9.7984e-03  2.0365e-03  1.0196e-02  1.0530e+00  9.7856e-03  8.4565e-03  3.1563e-03  0:07:15 1374
[...]
  1838  7.1896e-03  2.1529e-03  9.4380e-03  1.7000e+00  7.1792e-03  3.3047e-03  1.8640e-03  0:01:04  162
  1839  7.3139e-03  2.1631e-03  9.3911e-03  1.7453e+00  7.3035e-03  3.3100e-03  1.8685e-03  0:00:51  161
  1840  7.4747e-03  2.1687e-03  9.3363e-03  1.7925e+00  7.4643e-03  3.3200e-03  1.8687e-03  0:00:41  160
  1841  7.5734e-03  2.1760e-03  9.2811e-03  1.7958e+00  7.5631e-03  3.3342e-03  1.8641e-03  0:01:04  159
  1842  7.7261e-03  2.1821e-03  9.2307e-03  1.8479e+00  7.7159e-03  3.3460e-03  1.8633e-03  0:00:51  158
  1843  7.8858e-03  2.1845e-03  9.1760e-03  1.8647e+00  7.8755e-03  3.3572e-03  1.8676e-03  0:00:41  157
  1844  7.9910e-03  2.1824e-03  9.1315e-03  1.9121e+00  7.9808e-03  3.3637e-03  1.8733e-03  0:00:32  156
  1845  8.0697e-03  2.1745e-03  9.0990e-03  1.9268e+00  8.0595e-03  3.3678e-03  1.8736e-03  0:00:57  155
  1846  8.1659e-03  2.1668e-03  9.0678e-03  1.9470e+00  8.1558e-03  3.3714e-03  1.8687e-03  0:00:45  154
  1847  8.2502e-03  2.1548e-03  9.0457e-03  1.9698e+00  8.2401e-03  3.3778e-03  1.8715e-03  0:00:36  153
  1848  8.3318e-03  2.1422e-03  9.0383e-03  1.9932e+00  8.3217e-03  3.3876e-03  1.8644e-03  0:00:59  152

  iter  continuity  x-velocity  y-velocity  z-velocity      energy           k       omega     time/iter
  1849  8.4104e-03  2.1329e-03  9.0328e-03  2.0050e+00  8.4004e-03  3.4008e-03  1.8526e-03  0:00:47  151
  1850  8.4534e-03  2.1276e-03  9.0271e-03  2.0235e+00  8.4435e-03  3.4110e-03  1.8405e-03  0:00:37  150
  1851  8.4511e-03  2.1182e-03  9.0277e-03  2.0245e+00  8.4414e-03  3.4185e-03  1.8285e-03  0:00:59  149
  1852  8.4053e-03  2.1047e-03  9.0244e-03  2.0047e+00  8.3958e-03  3.4256e-03  1.8247e-03  0:00:47  148
  1853  8.3267e-03  2.0868e-03  9.0324e-03  1.9783e+00  8.3175e-03  3.4350e-03  1.8249e-03  0:00:37  147
  1854  8.2210e-03  2.0660e-03  9.0500e-03  1.9617e+00  8.2120e-03  3.4469e-03  1.8262e-03  0:00:30  146
  1855  8.0961e-03  2.0423e-03  9.0769e-03  1.9460e+00  8.0873e-03  3.4562e-03  1.8221e-03  0:00:53  145
  1856  7.9439e-03  2.0142e-03  9.1118e-03  1.9211e+00  7.9352e-03  3.4653e-03  1.8070e-03  0:00:42  144
  1857  7.7807e-03  1.9830e-03  9.1502e-03  1.9105e+00  7.7721e-03  3.4706e-03  1.7929e-03  0:00:33  143
  1858  7.6121e-03  1.9524e-03  9.1890e-03  1.8874e+00  7.6036e-03  3.4714e-03  1.7868e-03  0:00:55  142
  1859  7.4556e-03  1.9216e-03  9.2300e-03  1.8754e+00  7.4472e-03  3.4688e-03  1.7825e-03  0:00:44  141

  iter  continuity  x-velocity  y-velocity  z-velocity      energy           k       omega     time/iter
  1860  7.2783e-03  1.8908e-03  9.2659e-03  1.8511e+00  7.2699e-03  3.4658e-03  1.7741e-03  0:00:35  140
  1861  7.0750e-03  1.8606e-03  9.3061e-03  1.8174e+00  7.0668e-03  3.4660e-03  1.7625e-03  0:00:55  139
  1862  6.8502e-03  1.8303e-03  9.3457e-03  1.7887e+00  6.8421e-03  3.4704e-03  1.7604e-03  0:00:44  138
  1863  6.6401e-03  1.8082e-03  9.3895e-03  1.7572e+00  6.6321e-03  3.4750e-03  1.7660e-03  0:00:35  137
  1864  6.4143e-03  1.7921e-03  9.4265e-03  1.7255e+00  6.4065e-03  3.4776e-03  1.7705e-03  0:00:55  136
  1865  6.1894e-03  1.7803e-03  9.4562e-03  1.6879e+00  6.1817e-03  3.4791e-03  1.7653e-03  0:00:44  135
  1866  5.9687e-03  1.7730e-03  9.4773e-03  1.6465e+00  5.9609e-03  3.4779e-03  1.7621e-03  0:00:35  134
  1867  5.7526e-03  1.7709e-03  9.4874e-03  1.6115e+00  5.7448e-03  3.4776e-03  1.7603e-03  0:00:54  133
  1868  5.5508e-03  1.7704e-03  9.4933e-03  1.5813e+00  5.5429e-03  3.4753e-03  1.7668e-03  0:00:43  132
  1869  5.3729e-03  1.7712e-03  9.4938e-03  1.5641e+00  5.3648e-03  3.4757e-03  1.7711e-03  0:00:34  131
  1870  5.2212e-03  1.7753e-03  9.4954e-03  1.5531e+00  5.2129e-03  3.4681e-03  1.7783e-03  0:00:53  130

  iter  continuity  x-velocity  y-velocity  z-velocity      energy           k       omega     time/iter
  1871  5.0945e-03  1.7823e-03  9.5029e-03  1.5440e+00  5.0860e-03  3.4629e-03  1.7922e-03  0:00:42  129
  1872  4.9814e-03  1.7895e-03  9.5118e-03  1.5397e+00  4.9727e-03  3.4598e-03  1.8023e-03  0:00:33  128
  1873  4.9050e-03  1.7988e-03  9.5196e-03  1.5368e+00  4.8962e-03  3.4581e-03  1.8004e-03  0:00:27  127
  1874  4.8836e-03  1.8113e-03  9.5216e-03  1.5308e+00  4.8749e-03  3.4504e-03  1.8119e-03  0:00:46  126
  1875  4.9208e-03  1.8319e-03  9.5161e-03  1.5162e+00  4.9122e-03  3.4512e-03  1.8347e-03  0:00:37  125
  1876  4.9773e-03  1.8590e-03  9.5032e-03  1.5038e+00  4.9688e-03  3.4652e-03  1.8471e-03  0:00:29  124
  1877  5.0609e-03  1.8867e-03  9.4815e-03  1.4941e+00  5.0525e-03  3.4725e-03  1.8620e-03  0:00:48  123
  1878  5.1642e-03  1.9127e-03  9.4491e-03  1.4899e+00  5.1558e-03  3.4688e-03  1.8709e-03  0:00:38  122
  1879  5.2865e-03  1.9384e-03  9.4131e-03  1.4831e+00  5.2781e-03  3.4652e-03  1.8792e-03  0:00:30  121
  1880  5.4251e-03  1.9655e-03  9.3755e-03  1.4696e+00  5.4167e-03  3.4532e-03  1.9013e-03  0:00:48  120
  1881  5.5528e-03  1.9950e-03  9.3413e-03  1.4546e+00  5.5444e-03  3.4477e-03  1.9228e-03  0:00:38  119

  iter  continuity  x-velocity  y-velocity  z-velocity      energy           k       omega     time/iter
  1882  5.6578e-03  2.0222e-03  9.3102e-03  1.4490e+00  5.6494e-03  3.4456e-03  1.9369e-03  0:00:30  118
  1883  5.7576e-03  2.0445e-03  9.2808e-03  1.4369e+00  5.7493e-03  3.4447e-03  1.9604e-03  0:00:24  117
  1884  5.8991e-03  2.0658e-03  9.2508e-03  1.4206e+00  5.8908e-03  3.4411e-03  1.9768e-03  0:00:42  116
  1885  6.0390e-03  2.0834e-03  9.2184e-03  1.3984e+00  6.0306e-03  3.4356e-03  1.9850e-03  0:00:33  115
  1886  6.1874e-03  2.0980e-03  9.1855e-03  1.3763e+00  6.1790e-03  3.4320e-03  1.9886e-03  0:00:27  114
  1887  6.3324e-03  2.1152e-03  9.1519e-03  1.3556e+00  6.3240e-03  3.4295e-03  2.0058e-03  0:00:44  113
  1888  6.4682e-03  2.1304e-03  9.1180e-03  1.3255e+00  6.4596e-03  3.4253e-03  2.0166e-03  0:00:35  112
  1889  6.5823e-03  2.1406e-03  9.0769e-03  1.2959e+00  6.5736e-03  3.4318e-03  2.0091e-03  0:00:27  111
  1890  6.6651e-03  2.1446e-03  9.0301e-03  1.2750e+00  6.6563e-03  3.4287e-03  2.0135e-03  0:00:22  110
  1891  6.7100e-03  2.1398e-03  8.9833e-03  1.2598e+00  6.7012e-03  3.4234e-03  2.0184e-03  0:00:39  109
  1892  6.7398e-03  2.1260e-03  8.9406e-03  1.2430e+00  6.7309e-03  3.4193e-03  2.0128e-03  0:00:31  108

  iter  continuity  x-velocity  y-velocity  z-velocity      energy           k       omega     time/iter
  1893  6.7807e-03  2.1081e-03  8.9108e-03  1.2186e+00  6.7717e-03  3.4144e-03  2.0066e-03  0:00:25  107
  1894  6.8280e-03  2.0870e-03  8.8919e-03  1.1942e+00  6.8189e-03  3.4103e-03  2.0051e-03  0:00:41  106
  1895  6.8920e-03  2.0622e-03  8.8826e-03  1.1751e+00  6.8827e-03  3.4093e-03  1.9955e-03  0:00:32  105
  1896  6.9863e-03  2.0338e-03  8.8821e-03  1.1575e+00  6.9769e-03  3.4082e-03  1.9879e-03  0:00:26  104
  1897  7.1159e-03  1.9982e-03  8.8902e-03  1.1421e+00  7.1062e-03  3.4028e-03  1.9833e-03  0:00:20  103
  1898  7.2590e-03  1.9598e-03  8.9062e-03  1.1261e+00  7.2492e-03  3.3981e-03  1.9838e-03  0:00:36  102
  1899  7.4054e-03  1.9276e-03  8.9234e-03  1.1177e+00  7.3955e-03  3.3964e-03  1.9780e-03  0:00:29  101
  1900  7.5408e-03  1.8996e-03  8.9364e-03  1.1129e+00  7.5309e-03  3.3954e-03  1.9662e-03  0:00:23  100
  1901  7.6658e-03  1.8734e-03  8.9455e-03  1.1074e+00  7.6559e-03  3.3830e-03  1.9656e-03  0:00:18   99
  1902  7.7979e-03  1.8500e-03  8.9567e-03  1.0997e+00  7.7881e-03  3.3818e-03  1.9532e-03  0:00:34   98
  1903  7.9195e-03  1.8278e-03  8.9743e-03  1.0887e+00  7.9096e-03  3.3797e-03  1.9411e-03  0:00:27   97

  iter  continuity  x-velocity  y-velocity  z-velocity      energy           k       omega     time/iter
  1904  8.0369e-03  1.8041e-03  9.0029e-03  1.0746e+00  8.0269e-03  3.3816e-03  1.9283e-03  0:00:21   96
  1905  8.1795e-03  1.7790e-03  9.0400e-03  1.0674e+00  8.1695e-03  3.3830e-03  1.9069e-03  0:00:17   95
  1906  8.3533e-03  1.7510e-03  9.0865e-03  1.0601e+00  8.3431e-03  3.3835e-03  1.8811e-03  0:00:32   94
  1907  8.5631e-03  1.7232e-03  9.1442e-03  1.0581e+00  8.5527e-03  3.3788e-03  1.8578e-03  0:00:25   93
  1908  8.6877e-03  1.6976e-03  9.2148e-03  1.0502e+00  8.6772e-03  3.3759e-03  1.8456e-03  0:00:20   92
  1909  8.7936e-03  1.6742e-03  9.2936e-03  1.0470e+00  8.7829e-03  3.3785e-03  1.8306e-03  0:00:34   91
  1910  8.8972e-03  1.6534e-03  9.3724e-03  1.0379e+00  8.8865e-03  3.3740e-03  1.8101e-03  0:00:27   90
  1911  8.9617e-03  1.6371e-03  9.4490e-03  1.0311e+00  8.9509e-03  3.3686e-03  1.7946e-03  0:00:21   89
  1912  9.0431e-03  1.6310e-03  9.5196e-03  1.0239e+00  9.0324e-03  3.3561e-03  1.7828e-03  0:00:17   88
  1913  9.0933e-03  1.6310e-03  9.5876e-03  1.0183e+00  9.0825e-03  3.3579e-03  1.7707e-03  0:00:31   87
  1914  9.0988e-03  1.6347e-03  9.6568e-03  1.0056e+00  9.0881e-03  3.3543e-03  1.7583e-03  0:00:24   86

  iter  continuity  x-velocity  y-velocity  z-velocity      energy           k       omega     time/iter
  1915  9.1169e-03  1.6398e-03  9.7281e-03  9.8949e-01  9.1062e-03  3.3479e-03  1.7477e-03  0:00:19   85
  1916  9.0977e-03  1.6432e-03  9.7994e-03  9.7292e-01  9.0870e-03  3.3415e-03  1.7360e-03  0:00:32   84
  1917  9.0800e-03  1.6434e-03  9.8712e-03  9.5822e-01  9.0692e-03  3.3367e-03  1.7182e-03  0:00:25   83
  1918  9.0049e-03  1.6414e-03  9.9457e-03  9.4509e-01  8.9942e-03  3.3342e-03  1.7001e-03  0:00:20   82
  1919  8.9190e-03  1.6385e-03  1.0021e-02  9.2922e-01  8.9083e-03  3.3315e-03  1.6875e-03  0:00:16   81
  1920  8.7756e-03  1.6322e-03  1.0098e-02  9.1549e-01  8.7651e-03  3.3244e-03  1.6822e-03  0:00:28   80
  1921  8.6352e-03  1.6208e-03  1.0174e-02  9.0273e-01  8.6250e-03  3.3185e-03  1.6704e-03  0:00:23   79
  1922  8.4588e-03  1.6145e-03  1.0247e-02  8.9449e-01  8.4488e-03  3.3179e-03  1.6596e-03  0:00:18   78
  1923  8.2510e-03  1.6111e-03  1.0311e-02  8.8737e-01  8.2415e-03  3.3196e-03  1.6564e-03  0:00:14   77
  1924  8.0418e-03  1.6087e-03  1.0366e-02  8.7833e-01  8.0327e-03  3.3161e-03  1.6580e-03  0:00:26   76
  1925  7.8347e-03  1.6055e-03  1.0406e-02  8.7184e-01  7.8260e-03  3.3148e-03  1.6622e-03  0:00:21   75

  iter  continuity  x-velocity  y-velocity  z-velocity      energy           k       omega     time/iter
  1926  7.6313e-03  1.6009e-03  1.0438e-02  8.7259e-01  7.6230e-03  3.3084e-03  1.6716e-03  0:00:16   74
  1927  7.4356e-03  1.5983e-03  1.0463e-02  8.7479e-01  7.4276e-03  3.3036e-03  1.6791e-03  0:00:28   73
  1928  7.2306e-03  1.6045e-03  1.0480e-02  8.7844e-01  7.2229e-03  3.2936e-03  1.6911e-03  0:00:22   72
  1929  6.9869e-03  1.6131e-03  1.0489e-02  8.8157e-01  6.9795e-03  3.2857e-03  1.6978e-03  0:00:17   71
  1930  6.7302e-03  1.6231e-03  1.0492e-02  8.8594e-01  6.7232e-03  3.2771e-03  1.7063e-03  0:00:14   70
  1931  6.5051e-03  1.6240e-03  1.0494e-02  8.8814e-01  6.4985e-03  3.2643e-03  1.7188e-03  0:00:24   69
  1932  6.3240e-03  1.6285e-03  1.0491e-02  8.9053e-01  6.3178e-03  3.2569e-03  1.7326e-03  0:00:19   68
  1933  6.1748e-03  1.6355e-03  1.0480e-02  8.8807e-01  6.1688e-03  3.2534e-03  1.7421e-03  0:00:15   67
  1934  6.0641e-03  1.6456e-03  1.0460e-02  8.8349e-01  6.0582e-03  3.2467e-03  1.7459e-03  0:00:12   66
  1935  5.9945e-03  1.6632e-03  1.0432e-02  8.7618e-01  5.9887e-03  3.2431e-03  1.7564e-03  0:00:22   65
  1936  5.9593e-03  1.6871e-03  1.0400e-02  8.6694e-01  5.9536e-03  3.2380e-03  1.7686e-03  0:00:18   64

  iter  continuity  x-velocity  y-velocity  z-velocity      energy           k       omega     time/iter
  1937  5.9726e-03  1.7102e-03  1.0361e-02  8.5760e-01  5.9668e-03  3.2334e-03  1.7820e-03  0:00:14   63
  1938  5.9977e-03  1.7350e-03  1.0315e-02  8.4816e-01  5.9917e-03  3.2244e-03  1.7960e-03  0:00:11   62
  1939  6.0463e-03  1.7619e-03  1.0267e-02  8.4258e-01  6.0401e-03  3.2180e-03  1.8030e-03  0:00:21   61
  1940  6.1187e-03  1.7900e-03  1.0216e-02  8.3729e-01  6.1122e-03  3.2143e-03  1.8077e-03  0:00:16   60
  1941  6.1923e-03  1.8164e-03  1.0169e-02  8.2882e-01  6.1856e-03  3.2074e-03  1.8148e-03  0:00:13   59
  1942  6.2882e-03  1.8411e-03  1.0118e-02  8.3132e-01  6.2812e-03  3.2025e-03  1.8211e-03  0:00:22   58
  1943  6.3654e-03  1.8680e-03  1.0065e-02  8.3965e-01  6.3581e-03  3.2039e-03  1.8361e-03  0:00:17   57
  1944  6.4684e-03  1.9015e-03  1.0010e-02  8.4990e-01  6.4608e-03  3.2042e-03  1.8396e-03  0:00:13   56
  1945  6.5843e-03  1.9333e-03  9.9498e-03  8.7382e-01  6.5764e-03  3.2033e-03  1.8401e-03  0:00:11   55
  1946  6.6951e-03  1.9626e-03  9.8822e-03  8.8640e-01  6.6869e-03  3.2039e-03  1.8419e-03  0:00:19   54
  1947  6.7573e-03  1.9894e-03  9.8115e-03  8.9222e-01  6.7488e-03  3.2021e-03  1.8425e-03  0:00:15   53

  iter  continuity  x-velocity  y-velocity  z-velocity      energy           k       omega     time/iter
  1948  6.8414e-03  2.0089e-03  9.6954e-03  9.1036e-01  6.8325e-03  3.2010e-03  1.8458e-03  0:00:12   52
  1949  6.9274e-03  2.0225e-03  9.6135e-03  9.2662e-01  6.9182e-03  3.2018e-03  1.8536e-03  0:00:09   51
  1950  6.9956e-03  2.0410e-03  9.5435e-03  9.3677e-01  6.9861e-03  3.1973e-03  1.8583e-03  0:00:17   50
  1951  7.0588e-03  2.0578e-03  9.4795e-03  9.4435e-01  7.0490e-03  3.1936e-03  1.8596e-03  0:00:14   49
  1952  7.1600e-03  2.0704e-03  9.4299e-03  9.5512e-01  7.1500e-03  3.1893e-03  1.8727e-03  0:00:11   48
  1953  7.2520e-03  2.0822e-03  9.3839e-03  9.6591e-01  7.2419e-03  3.1978e-03  1.8909e-03  0:00:18   47
  1954  7.3639e-03  2.0957e-03  9.3355e-03  9.7204e-01  7.3536e-03  3.2124e-03  1.9002e-03  0:00:14   46
  1955  7.4617e-03  2.1151e-03  9.2934e-03  9.7391e-01  7.4513e-03  3.2218e-03  1.9092e-03  0:00:11   45
  1956  7.5786e-03  2.1267e-03  9.2421e-03  9.7682e-01  7.5682e-03  3.2281e-03  1.9101e-03  0:00:17   44
  1957  7.6605e-03  2.1373e-03  9.1916e-03  9.7438e-01  7.6502e-03  3.2404e-03  1.9058e-03  0:00:14   43
  1958  7.7578e-03  2.1482e-03  9.1440e-03  9.7751e-01  7.7475e-03  3.2556e-03  1.9009e-03  0:00:11   42

  iter  continuity  x-velocity  y-velocity  z-velocity      energy           k       omega     time/iter
  1959  7.8881e-03  2.1583e-03  9.0928e-03  9.8041e-01  7.8777e-03  3.2653e-03  1.9029e-03  0:00:08   41
  1960  7.9766e-03  2.1642e-03  9.0498e-03  9.7910e-01  7.9663e-03  3.2732e-03  1.9149e-03  0:00:14   40
  1961  8.0480e-03  2.1632e-03  9.0214e-03  9.7348e-01  8.0378e-03  3.2794e-03  1.9221e-03  0:00:11   39
  1962  8.1364e-03  2.1596e-03  8.9887e-03  9.7326e-01  8.1262e-03  3.2806e-03  1.9149e-03  0:00:09   38
  1963  8.2235e-03  2.1547e-03  8.9690e-03  9.6491e-01  8.2134e-03  3.2864e-03  1.9047e-03  0:00:14   37
  1964  8.3084e-03  2.1439e-03  8.9584e-03  9.5773e-01  8.2983e-03  3.2983e-03  1.8979e-03  0:00:11   36
  1965  8.4085e-03  2.1350e-03  8.9600e-03  9.5435e-01  8.3985e-03  3.3122e-03  1.8860e-03  0:00:09   35
  1966  8.4726e-03  2.1308e-03  8.9611e-03  9.4375e-01  8.4627e-03  3.3283e-03  1.8799e-03  0:00:07   34
  1967  8.5006e-03  2.1233e-03  8.9710e-03  9.3873e-01  8.4909e-03  3.3417e-03  1.8704e-03  0:00:12   33
  1968  8.4839e-03  2.1123e-03  8.9755e-03  9.3206e-01  8.4744e-03  3.3498e-03  1.8675e-03  0:00:09   32
  1969  8.4323e-03  2.0975e-03  8.9827e-03  9.2188e-01  8.4231e-03  3.3532e-03  1.8663e-03  0:00:07   31

  iter  continuity  x-velocity  y-velocity  z-velocity      energy           k       omega     time/iter
  1970  8.3425e-03  2.0795e-03  9.0047e-03  9.1277e-01  8.3336e-03  3.3635e-03  1.8638e-03  0:00:05   30
  1971  8.2378e-03  2.0572e-03  9.0365e-03  9.0391e-01  8.2291e-03  3.3756e-03  1.8616e-03  0:00:10   29
  1972  8.1077e-03  2.0294e-03  9.0735e-03  8.9448e-01  8.0991e-03  3.3865e-03  1.8558e-03  0:00:08   28
  1973  7.9597e-03  1.9993e-03  9.1184e-03  8.8742e-01  7.9512e-03  3.3965e-03  1.8476e-03  0:00:06   27
  1974  7.8005e-03  1.9690e-03  9.1634e-03  8.8141e-01  7.7922e-03  3.4016e-03  1.8363e-03  0:00:10   26
  1975  7.6207e-03  1.9371e-03  9.2095e-03  8.7856e-01  7.6124e-03  3.4021e-03  1.8245e-03  0:00:08   25
  1976  7.4408e-03  1.9062e-03  9.2523e-03  8.7422e-01  7.4326e-03  3.3996e-03  1.8132e-03  0:00:06   24
  1977  7.2651e-03  1.8741e-03  9.2947e-03  8.6717e-01  7.2569e-03  3.3981e-03  1.8049e-03  0:00:04   23
  1978  7.0604e-03  1.8420e-03  9.3398e-03  8.6230e-01  7.0524e-03  3.3965e-03  1.8020e-03  0:00:08   22
  1979  6.8409e-03  1.8126e-03  9.3867e-03  8.5725e-01  6.8329e-03  3.4047e-03  1.8039e-03  0:00:06   21
  1980  6.6190e-03  1.7925e-03  9.4321e-03  8.5091e-01  6.6112e-03  3.4128e-03  1.8100e-03  0:00:05   20

  iter  continuity  x-velocity  y-velocity  z-velocity      energy           k       omega     time/iter
  1981  6.3906e-03  1.7767e-03  9.4668e-03  8.4556e-01  6.3829e-03  3.4206e-03  1.8125e-03  0:00:07   19
  1982  6.1579e-03  1.7662e-03  9.4950e-03  8.3894e-01  6.1502e-03  3.4231e-03  1.8138e-03  0:00:05   18
  1983  5.9240e-03  1.7605e-03  9.5111e-03  8.3303e-01  5.9162e-03  3.4243e-03  1.8033e-03  0:00:04   17
  1984  5.7022e-03  1.7593e-03  9.5228e-03  8.3113e-01  5.6944e-03  3.4248e-03  1.8054e-03  0:00:03   16
  1985  5.4995e-03  1.7609e-03  9.5227e-03  8.3414e-01  5.4915e-03  3.4260e-03  1.8123e-03  0:00:05   15
  1986  5.3220e-03  1.7679e-03  9.5196e-03  8.4114e-01  5.3138e-03  3.4229e-03  1.8204e-03  0:00:04   14
  1987  5.1796e-03  1.7756e-03  9.5226e-03  8.4849e-01  5.1711e-03  3.4181e-03  1.8242e-03  0:00:03   13
  1988  5.0617e-03  1.7857e-03  9.5295e-03  8.5659e-01  5.0530e-03  3.4141e-03  1.8347e-03  0:00:02   12
  1989  4.9608e-03  1.7971e-03  9.5374e-03  8.6343e-01  4.9519e-03  3.4143e-03  1.8500e-03  0:00:04   11
  1990  4.9067e-03  1.8074e-03  9.5390e-03  8.7126e-01  4.8977e-03  3.4112e-03  1.8622e-03  0:00:03   10
  1991  4.9101e-03  1.8269e-03  9.5340e-03  8.7176e-01  4.9012e-03  3.4101e-03  1.8741e-03  0:00:02    9

  iter  continuity  x-velocity  y-velocity  z-velocity      energy           k       omega     time/iter
  1992  4.9601e-03  1.8531e-03  9.5223e-03  8.7164e-01  4.9513e-03  3.4214e-03  1.8866e-03  0:00:03    8
  1993  5.0339e-03  1.8805e-03  9.5010e-03  8.7515e-01  5.0253e-03  3.4312e-03  1.9034e-03  0:00:02    7
  1994  5.1337e-03  1.9078e-03  9.4723e-03  8.8398e-01  5.1251e-03  3.4335e-03  1.9190e-03  0:00:01    6
  1995  5.2512e-03  1.9340e-03  9.4374e-03  8.9542e-01  5.2427e-03  3.4352e-03  1.9289e-03  0:00:01    5
  1996  5.3849e-03  1.9600e-03  9.3995e-03  9.1655e-01  5.3763e-03  3.4302e-03  1.9386e-03  0:00:01    4
  1997  5.5278e-03  1.9890e-03  9.3644e-03  9.2109e-01  5.5193e-03  3.4243e-03  1.9551e-03  0:00:01    3
  1998  5.6472e-03  2.0170e-03  9.3327e-03  9.2316e-01  5.6387e-03  3.4184e-03  1.9751e-03  0:00:01    2
  1999  5.7467e-03  2.0419e-03  9.3035e-03  9.1734e-01  5.7383e-03  3.4149e-03  1.9962e-03  0:00:00    1
  2000  5.8866e-03  2.0637e-03  9.2754e-03  9.1634e-01  5.8782e-03  3.4113e-03  2.0168e-03  0:00:00    0

> 
adjoint/                parallel/               server/
define/                 parametric-study/       solve/
display/                plot/                   surface/
exit                    preferences/            turbo-workflow/
file/                   print-license-usage     views/
mesh/                   report/

> /file/write-case-data project1
Fast-loading "C:\PROGRA~1\ANSYSI~1\v231\fluent\fluent23.1.0\\addons\afd\lib\hdfio.bin"
Done.

Writing to Engs-30669:"C:\Users\kebl7595\Desktop\CFD\Runs\Flap\3 degrees\project1.cas.h5" in NODE0 mode and compression level 1 ...
       24072 cells,     1 zone  ...
       80918 faces,     7 zones ...
       33000 nodes,     1 zone  ...
  Done.
Done.

Writing to Engs-30669:"C:\Users\kebl7595\Desktop\CFD\Runs\Flap\3 degrees\project1.dat.h5" in NODE0 mode and compression level 1 ...
  Writing results.
Done.

> /file/export/ascii "./surface.dat" wing () no pressure mach-number quit no

Writing "./surface.dat"...

Writing information to ascii file ...
Done.


> /report/forces/wall-forces y -0.052336 -0.99863 0 y "Lift"

> /report/forces/wall-forces y 0.99863 -0.052336 0 y "Drag"

> ;/exit

> /exit y

Posting ANSYS Product Improvement Program performance data 
Done.
Auto-Transcript Stop Time:  10:24:21, 22 May 2024 GMT Daylight Time 
Total Transcript Time: 16 Minute 9 Second.
