Auto-Transcript Start Time:  10:44:02, 21 May 2024 GMT Daylight Time 
Current Directory: "C:\Users\kebl7595\Desktop\CFD\Runs\Viscous\18 degree"

              Welcome to ANSYS Fluent 2023 R1

              Copyright 1987-2023 ANSYS, Inc. All Rights Reserved.
              Unauthorized use, distribution or duplication is prohibited.
              This product is subject to U.S. laws governing export and re-export.
              For full Legal Notice, see documentation.

Build Time: Nov 28 2022 09:52:02 EST  Build Id: 10208  
 
Connected License Server List:	1055@ansyslic.eng.ox.ac.uk

*********************************************
Info: Your license enables 4-way parallel execution.
For faster simulations, please start the application with the appropriate parallel options.
*********************************************


     --------------------------------------------------------------
     This is an academic version of ANSYS FLUENT. Usage of this product
     license is limited to the terms and conditions specified in your ANSYS
     license form, additional terms section.
     --------------------------------------------------------------
Host spawning Node 0 on machine "Engs-30669" (win64).

------------------------------------------------------------------------------------
ID    Hostname    Core  O.S.         PID    Vendor                                 
------------------------------------------------------------------------------------
n0    Engs-30669  1/32  Windows-x64  49480  13th Gen Intel(R) Core(TM) i9-13900    
host  Engs-30669        Windows-x64  46656  13th Gen Intel(R) Core(TM) i9-13900    

MPI Option Selected: intel
------------------------------------------------------------------------------------

Cleanup script file is C:\\Users\\kebl7595\\Desktop\\CFD\\Runs\\Viscous\\18 degree\\cleanup-fluent-Engs-30669-46656.bat
QA Service Message :
QA Services Agreement Enabled. This application is included in the scope of an ANSYS QA Services Agreement.
Posting ANSYS Product Improvement Program startup data
Done.

Reading journal file C:/Users/kebl7595/Desktop/CFD/Runs/Viscous/18 degree/project1.jou...

> /file/set-batch-options no no no 

> 
define/                 parametric-study/       solve/
display/                plot/                   surface/
exit                    preferences/            switch-to-meshing-mode
file/                   print-license-usage     turbo-workflow/
mesh/                   report/                 views/
parallel/               server/

> /file/import/cgns/mesh  "./project1.cgns"
Engs-30669 has other FLUENT parallel processes running.                       Process affinity not being set.

Importing "./project1.cgns"

Opening library "C:\\PROGRA~1\\ANSYSI~1\\v231\\fluent\\fluent23.1.0\\vki\\win64\\devtools4.4.6.dll"... done.

Read    17864 nodes
   12996 hexahedral cells, zone  1
    9462 quadrilateral wall faces, zone  2.
   33972 quadrilateral interior faces, zone  3.
     282 quadrilateral interface faces, zone  4.
       6 quadrilateral wall faces, zone  5.

Building...
     mesh
     materials,
     interface,
     domains,
     zones,
	default_exterior-1
	interface-default_subface
	default_interior-1
	default_subface
	default
     parallel,
The automatic selection for flux type has changed to Rhie-Chow: momentum based.

Done.


> 
adjoint/                parallel/               server/
define/                 parametric-study/       solve/
display/                plot/                   surface/
exit                    preferences/            turbo-workflow/
file/                   print-license-usage     views/
mesh/                   report/

> /define/models/solver/density-based-implicit yes

> 
adjoint/                parallel/               server/
define/                 parametric-study/       solve/
display/                plot/                   surface/
exit                    preferences/            turbo-workflow/
file/                   print-license-usage     views/
mesh/                   report/

> /define/models/energy? yes yes invalid command [yes]
yes

> /define/models/viscous/kw-standard? yes

> 
adjoint/                parallel/               server/
define/                 parametric-study/       solve/
display/                plot/                   surface/
exit                    preferences/            turbo-workflow/
file/                   print-license-usage     views/
mesh/                   report/

> /define/materials/change-create air air air is a fluid
yes 
Density
ideal-gas no data required.

no no no no no no

> 
adjoint/                parallel/               server/
define/                 parametric-study/       solve/
display/                plot/                   surface/
exit                    preferences/            turbo-workflow/
file/                   print-license-usage     views/
mesh/                   report/

> /mesh/modify-zones/sep-face-zone-angle 2 90 yes

 4332 faces in contiguous region 0
 228 faces in contiguous region 1
 342 faces in contiguous region 2
 4332 faces in contiguous region 3
 228 faces in contiguous region 4
 Separates zone 2 into 5 zone(s).
Updating new zone information...
   created new zone default_subface:010 from default_subface
   created new zone default_subface:009 from default_subface
   created new zone default_subface:008 from default_subface
   created new zone default_subface:007 from default_subface
done.

> 
adjoint/                parallel/               server/
define/                 parametric-study/       solve/
display/                plot/                   surface/
exit                    preferences/            turbo-workflow/
file/                   print-license-usage     views/
mesh/                   report/

> /define/boundary-conditions/zone-name  5   te

> /define/boundary-conditions/zone-name  7 wing

> /define/boundary-conditions/zone-name  2 sym1

> /define/boundary-conditions/zone-name  9 sym2

> 
adjoint/                parallel/               server/
define/                 parametric-study/       solve/
display/                plot/                   surface/
exit                    preferences/            turbo-workflow/
file/                   print-license-usage     views/
mesh/                   report/

> /define/boundary-conditions/zone-name  8 far1

> /define/boundary-conditions/zone-name 10 far2

> 
adjoint/                parallel/               server/
define/                 parametric-study/       solve/
display/                plot/                   surface/
exit                    preferences/            turbo-workflow/
file/                   print-license-usage     views/
mesh/                   report/

> /define/boundary-conditions/zone-type  8 pressure-far-field

> /define/boundary-conditions/zone-type 10 pressure-far-field

> /define/boundary-conditions/zone-type  2 symmetry

> /define/boundary-conditions/zone-type  9 symmetry

> 
adjoint/                parallel/               server/
define/                 parametric-study/       solve/
display/                plot/                   surface/
exit                    preferences/            turbo-workflow/
file/                   print-license-usage     views/
mesh/                   report/

> /define/boundary-conditions/pressure-far-field (far2 far1)
far1 no 0 no 0.1 no 300 yes no 0.95106 no 0.30902 no 0. no yes 5 0.02

> /define/boundary-conditions/pressure-far-field (far2 far1)
far2 no 0 no 0.1 no 300 yes no 0.95106 no 0.30902 no 0. no yes 5 0.02

> 
adjoint/                parallel/               server/
define/                 parametric-study/       solve/
display/                plot/                   surface/
exit                    preferences/            turbo-workflow/
file/                   print-license-usage     views/
mesh/                   report/

> /solve/initialize/compute-defaults/pressure-far-field (far2 far1)
far1

> /solve/initialize/initialize-flow

> 
adjoint/                parallel/               server/
define/                 parametric-study/       solve/
display/                plot/                   surface/
exit                    preferences/            turbo-workflow/
file/                   print-license-usage     views/
mesh/                   report/

> /solve/monitors/residual/convergence-criteria 1.e-9 1.e-9 1.e-9 1.e-9 1.e-9 1.e-9 1.e-9

> /solve/iterate 2000

  iter  continuity  x-velocity  y-velocity  z-velocity      energy           k       omega     time/iter
     1  1.0000e+00  1.0000e+00  1.0000e+00  1.0000e+00  1.0000e+00  1.7350e-01  1.2950e-01  0:00:00 1999
     2  5.0445e-01  4.3487e-01  4.5522e-01  1.0000e+00  5.0497e-01  1.3107e-01  1.0187e-01  0:00:00 1998
     3  2.7647e-01  2.1019e-01  2.2503e-01  9.8022e-01  2.7667e-01  1.0249e-01  8.2982e-02  0:33:17 1997
     4  1.7379e-01  1.3649e-01  1.3351e-01  7.2337e-01  1.7384e-01  8.3241e-02  6.9106e-02  0:26:37 1996
     5  1.2482e-01  1.0424e-01  8.9929e-02  6.5299e-01  1.2484e-01  7.0569e-02  5.9007e-02  0:21:17 1995
     6  9.9954e-02  7.6964e-02  6.4051e-02  7.3997e-01  9.9994e-02  6.0827e-02  5.1728e-02  0:17:01 1994
     7  8.5404e-02  5.8422e-02  4.8037e-02  7.4752e-01  8.5474e-02  5.3022e-02  4.5948e-02  0:13:36 1993
     8  7.5015e-02  4.6559e-02  3.8098e-02  7.3481e-01  7.5101e-02  4.6677e-02  4.1109e-02  0:10:53 1992
     9  6.7542e-02  3.8971e-02  3.1764e-02  7.2067e-01  6.7632e-02  4.1456e-02  3.7006e-02  0:08:42 1991
    10  6.2144e-02  3.4395e-02  2.7528e-02  6.9559e-01  6.2229e-02  3.7153e-02  3.3523e-02  0:06:57 1990
    11  5.8394e-02  3.2042e-02  2.4499e-02  6.6015e-01  5.8467e-02  3.3635e-02  3.0557e-02  0:12:11 1989

  iter  continuity  x-velocity  y-velocity  z-velocity      energy           k       omega     time/iter
    12  5.6046e-02  3.1199e-02  2.2241e-02  6.3085e-01  5.6105e-02  3.0708e-02  2.8024e-02  0:09:45 1988
    13  5.4961e-02  3.1526e-02  2.0625e-02  6.1343e-01  5.5005e-02  2.8238e-02  2.5860e-02  0:07:48 1987
    14  5.4862e-02  3.2358e-02  1.9468e-02  6.1608e-01  5.4892e-02  2.6133e-02  2.3970e-02  0:06:14 1986
    15  5.5583e-02  3.3634e-02  1.8797e-02  6.4287e-01  5.5600e-02  2.4322e-02  2.2302e-02  0:04:59 1985
    16  5.6923e-02  3.5294e-02  1.8477e-02  6.8818e-01  5.6927e-02  2.2760e-02  2.0832e-02  0:10:36 1984
    17  5.8702e-02  3.7214e-02  1.8438e-02  7.3959e-01  5.8692e-02  2.1378e-02  1.9534e-02  0:08:28 1983
    18  6.0754e-02  3.9231e-02  1.8589e-02  8.0864e-01  6.0731e-02  2.0162e-02  1.8376e-02  0:06:47 1982
    19  6.2966e-02  4.1307e-02  1.8895e-02  8.9456e-01  6.2927e-02  1.9086e-02  1.7340e-02  0:05:25 1981
    20  6.5189e-02  4.3196e-02  1.9411e-02  9.9374e-01  6.5133e-02  1.8119e-02  1.6406e-02  0:04:20 1980
    21  6.7317e-02  4.4928e-02  2.0029e-02  1.1013e+00  6.7243e-02  1.7237e-02  1.5557e-02  0:03:28 1979
    22  6.9226e-02  4.6233e-02  2.0805e-02  1.2090e+00  6.9130e-02  1.6435e-02  1.4788e-02  0:02:46 1978

  iter  continuity  x-velocity  y-velocity  z-velocity      energy           k       omega     time/iter
    23  7.0816e-02  4.7027e-02  2.1798e-02  1.3101e+00  7.0698e-02  1.5703e-02  1.4092e-02  0:08:48 1977
    24  7.2016e-02  4.7687e-02  2.2542e-02  1.3964e+00  7.1873e-02  1.5029e-02  1.3452e-02  0:07:02 1976
    25  7.2763e-02  4.8164e-02  2.3125e-02  1.4636e+00  7.2595e-02  1.4411e-02  1.2864e-02  0:05:38 1975
    26  7.3053e-02  4.8375e-02  2.3590e-02  1.5045e+00  7.2858e-02  1.3841e-02  1.2324e-02  0:04:30 1974
    27  7.2879e-02  4.8235e-02  2.3917e-02  1.5168e+00  7.2658e-02  1.3311e-02  1.1816e-02  0:03:36 1973
    28  7.2237e-02  4.7538e-02  2.4172e-02  1.4998e+00  7.1989e-02  1.2821e-02  1.1338e-02  0:02:53 1972
    29  7.1124e-02  4.6961e-02  2.4044e-02  1.4492e+00  7.0850e-02  1.2365e-02  1.0890e-02  0:02:18 1971
    30  6.9618e-02  4.6282e-02  2.3815e-02  1.3800e+00  6.9319e-02  1.1940e-02  1.0465e-02  0:08:24 1970
    31  6.7724e-02  4.5429e-02  2.3337e-02  1.2939e+00  6.7402e-02  1.1545e-02  1.0065e-02  0:06:43 1969
    32  6.5484e-02  4.4568e-02  2.2723e-02  1.1986e+00  6.5141e-02  1.1176e-02  9.6756e-03  0:05:22 1968
    33  6.2961e-02  4.3614e-02  2.2214e-02  1.1140e+00  6.2598e-02  1.0828e-02  9.2997e-03  0:04:18 1967

  iter  continuity  x-velocity  y-velocity  z-velocity      energy           k       omega     time/iter
    34  6.0235e-02  4.2589e-02  2.1845e-02  1.0580e+00  5.9855e-02  1.0502e-02  8.9548e-03  0:03:26 1966
    35  5.7320e-02  4.1628e-02  2.1602e-02  1.0380e+00  5.6926e-02  1.0204e-02  8.6244e-03  0:02:45 1965
    36  5.4240e-02  4.0751e-02  2.1602e-02  1.0552e+00  5.3834e-02  9.9207e-03  8.3000e-03  0:02:12 1964
    37  5.1041e-02  3.9886e-02  2.2000e-02  1.1085e+00  5.0625e-02  9.6544e-03  7.9955e-03  0:01:45 1963
    38  4.7762e-02  3.9038e-02  2.2860e-02  1.1870e+00  4.7339e-02  9.4139e-03  7.7036e-03  0:01:24 1962
    39  4.4460e-02  3.8238e-02  2.4161e-02  1.2788e+00  4.4032e-02  9.1963e-03  7.4430e-03  0:07:40 1961
    40  4.1160e-02  3.7531e-02  2.5828e-02  1.3702e+00  4.0729e-02  8.9954e-03  7.1941e-03  0:06:07 1960
    41  3.7882e-02  3.6945e-02  2.7597e-02  1.4522e+00  3.7450e-02  8.8146e-03  6.9702e-03  0:04:54 1959
    42  3.4654e-02  3.6497e-02  2.9592e-02  1.5177e+00  3.4222e-02  8.6596e-03  6.7488e-03  0:03:55 1958
    43  3.1501e-02  3.6188e-02  3.1729e-02  1.5571e+00  3.1071e-02  8.5190e-03  6.5412e-03  0:03:08 1957
    44  2.8463e-02  3.6203e-02  3.3838e-02  1.5684e+00  2.8037e-02  8.3888e-03  6.3387e-03  0:02:30 1956

  iter  continuity  x-velocity  y-velocity  z-velocity      energy           k       omega     time/iter
    45  2.5586e-02  3.6389e-02  3.6038e-02  1.5534e+00  2.5165e-02  8.2675e-03  6.1409e-03  0:02:00 1955
    46  2.2876e-02  3.6728e-02  3.8222e-02  1.5160e+00  2.2462e-02  8.1740e-03  5.9387e-03  0:01:36 1954
    47  2.0339e-02  3.7214e-02  4.0319e-02  1.4608e+00  1.9934e-02  8.1051e-03  5.7492e-03  0:07:47 1953
    48  1.8022e-02  3.7838e-02  4.2288e-02  1.3931e+00  1.7629e-02  8.0511e-03  5.5653e-03  0:06:14 1952
    49  1.5960e-02  3.8682e-02  4.4102e-02  1.3170e+00  1.5583e-02  7.9985e-03  5.4005e-03  0:04:59 1951
    50  1.4193e-02  3.9694e-02  4.5732e-02  1.2411e+00  1.3837e-02  7.9626e-03  5.2530e-03  0:03:59 1950
    51  1.2748e-02  4.0820e-02  4.7166e-02  1.1668e+00  1.2422e-02  7.9459e-03  5.0882e-03  0:03:11 1949
    52  1.1661e-02  4.2034e-02  4.8393e-02  1.0988e+00  1.1374e-02  7.9450e-03  4.9270e-03  0:02:33 1948
    53  1.0956e-02  4.3305e-02  4.9411e-02  1.0386e+00  1.0716e-02  7.9692e-03  4.7992e-03  0:02:02 1947
    54  1.0619e-02  4.4625e-02  5.0225e-02  9.9090e-01  1.0432e-02  8.0145e-03  4.6795e-03  0:01:38 1946
    55  1.0607e-02  4.5942e-02  5.0829e-02  9.6595e-01  1.0472e-02  8.1016e-03  4.5494e-03  0:01:18 1945

  iter  continuity  x-velocity  y-velocity  z-velocity      energy           k       omega     time/iter
    56  1.0857e-02  4.7255e-02  5.1211e-02  9.5945e-01  1.0768e-02  8.2194e-03  4.4306e-03  0:07:31 1944
    57  1.1285e-02  4.8543e-02  5.1383e-02  9.6682e-01  1.1236e-02  8.3501e-03  4.3451e-03  0:06:01 1943
    58  1.1813e-02  4.9794e-02  5.1340e-02  9.8511e-01  1.1795e-02  8.4990e-03  4.2712e-03  0:04:48 1942
    59  1.2372e-02  5.0997e-02  5.1076e-02  1.0081e+00  1.2377e-02  8.6655e-03  4.1917e-03  0:03:51 1941
    60  1.2929e-02  5.2142e-02  5.0607e-02  1.0349e+00  1.2951e-02  8.8432e-03  4.1264e-03  0:03:04 1940
    61  1.3451e-02  5.3164e-02  4.9938e-02  1.0643e+00  1.3484e-02  9.0242e-03  4.0515e-03  0:02:27 1939
    62  1.3908e-02  5.3978e-02  4.9055e-02  1.0958e+00  1.3949e-02  9.2028e-03  3.9742e-03  0:01:58 1938
    63  1.4309e-02  5.4682e-02  4.8008e-02  1.1216e+00  1.4353e-02  9.3874e-03  3.9070e-03  0:08:02 1937
    64  1.4634e-02  5.5239e-02  4.6784e-02  1.1469e+00  1.4680e-02  9.5628e-03  3.8512e-03  0:06:25 1936
    65  1.4879e-02  5.5624e-02  4.5410e-02  1.1695e+00  1.4924e-02  9.7280e-03  3.8033e-03  0:05:08 1935
    66  1.5045e-02  5.5811e-02  4.3937e-02  1.1855e+00  1.5088e-02  9.8981e-03  3.7748e-03  0:04:06 1934

  iter  continuity  x-velocity  y-velocity  z-velocity      energy           k       omega     time/iter
    67  1.5110e-02  5.5535e-02  4.2356e-02  1.1908e+00  1.5150e-02  1.0068e-02  3.7492e-03  0:03:17 1933
    68  1.5057e-02  5.4930e-02  4.0541e-02  1.1844e+00  1.5092e-02  1.0212e-02  3.7172e-03  0:02:37 1932
    69  1.4901e-02  5.4078e-02  3.8619e-02  1.1665e+00  1.4930e-02  1.0354e-02  3.6815e-03  0:02:06 1931
    70  1.4647e-02  5.3022e-02  3.6620e-02  1.1407e+00  1.4670e-02  1.0488e-02  3.6491e-03  0:01:41 1930
    71  1.4290e-02  5.1812e-02  3.4584e-02  1.1118e+00  1.4307e-02  1.0657e-02  3.6353e-03  0:07:46 1929
    72  1.3808e-02  5.0403e-02  3.2378e-02  1.0804e+00  1.3818e-02  1.0816e-02  3.6259e-03  0:06:13 1928
    73  1.3227e-02  4.8805e-02  3.0308e-02  1.0441e+00  1.3231e-02  1.0992e-02  3.6088e-03  0:04:58 1927
    74  1.2550e-02  4.6962e-02  2.8224e-02  1.0133e+00  1.2549e-02  1.1185e-02  3.5804e-03  0:03:58 1926
    75  1.1774e-02  4.4921e-02  2.6137e-02  9.8882e-01  1.1768e-02  1.1371e-02  3.5569e-03  0:03:11 1925
    76  1.0883e-02  4.2605e-02  2.4071e-02  9.6602e-01  1.0873e-02  1.1539e-02  3.5394e-03  0:02:32 1924
    77  1.0030e-02  4.0579e-02  2.2174e-02  9.5190e-01  1.0017e-02  1.1684e-02  3.5298e-03  0:02:02 1923

  iter  continuity  x-velocity  y-velocity  z-velocity      energy           k       omega     time/iter
    78  9.1647e-03  3.8192e-02  2.0478e-02  9.4645e-01  9.1491e-03  1.1825e-02  3.5080e-03  0:01:37 1922
    79  8.3579e-03  3.5760e-02  1.8980e-02  9.4821e-01  8.3408e-03  1.1995e-02  3.4974e-03  0:07:42 1921
    80  7.7036e-03  3.3568e-02  1.7692e-02  9.5827e-01  7.6862e-03  1.2165e-02  3.4716e-03  0:06:09 1920
    81  7.2973e-03  3.1646e-02  1.6607e-02  9.7649e-01  7.2805e-03  1.2340e-02  3.4539e-03  0:04:55 1919
    82  7.2385e-03  2.9986e-02  1.5715e-02  9.9741e-01  7.2228e-03  1.2519e-02  3.4444e-03  0:03:56 1918
    83  7.5645e-03  2.8779e-02  1.5040e-02  1.0236e+00  7.5493e-03  1.2708e-02  3.4180e-03  0:03:09 1917
    84  8.2236e-03  2.8024e-02  1.4507e-02  1.0523e+00  8.2076e-03  1.2911e-02  3.3746e-03  0:02:31 1916
    85  9.1050e-03  2.7654e-02  1.4218e-02  1.0824e+00  9.0862e-03  1.3155e-02  3.3452e-03  0:02:01 1915
    86  1.0192e-02  2.7879e-02  1.4182e-02  1.1144e+00  1.0169e-02  1.3429e-02  3.3304e-03  0:07:59 1914
    87  1.1377e-02  2.8305e-02  1.4262e-02  1.1429e+00  1.1346e-02  1.3742e-02  3.3052e-03  0:06:23 1913
    88  1.2592e-02  2.8629e-02  1.4434e-02  1.1669e+00  1.2553e-02  1.4039e-02  3.2587e-03  0:05:06 1912

  iter  continuity  x-velocity  y-velocity  z-velocity      energy           k       omega     time/iter
    89  1.3798e-02  2.8955e-02  1.4580e-02  1.1832e+00  1.3749e-02  1.4266e-02  3.2215e-03  0:04:05 1911
    90  1.4959e-02  2.9462e-02  1.4638e-02  1.1892e+00  1.4899e-02  1.4529e-02  3.1868e-03  0:03:16 1910
    91  1.6035e-02  3.0071e-02  1.4630e-02  1.1857e+00  1.5964e-02  1.4918e-02  3.1476e-03  0:02:37 1909
    92  1.6998e-02  3.0685e-02  1.4581e-02  1.1715e+00  1.6914e-02  1.5311e-02  3.1076e-03  0:02:05 1908
    93  1.7823e-02  3.1225e-02  1.4501e-02  1.1458e+00  1.7727e-02  1.5671e-02  3.0535e-03  0:08:02 1907
    94  1.8497e-02  3.1632e-02  1.4401e-02  1.1157e+00  1.8388e-02  1.5814e-02  3.0004e-03  0:06:25 1906
    95  1.9009e-02  3.1875e-02  1.4290e-02  1.0803e+00  1.8887e-02  1.5885e-02  2.9516e-03  0:05:08 1905
    96  1.9347e-02  3.1940e-02  1.4176e-02  1.0410e+00  1.9211e-02  1.6037e-02  2.9009e-03  0:04:06 1904
    97  1.9504e-02  3.1821e-02  1.3886e-02  1.0040e+00  1.9355e-02  1.6268e-02  2.8595e-03  0:03:17 1903
    98  1.9493e-02  3.1552e-02  1.3830e-02  9.7033e-01  1.9331e-02  1.6502e-02  2.8174e-03  0:02:37 1902
    99  1.9312e-02  3.1096e-02  1.3842e-02  9.4080e-01  1.9138e-02  1.6733e-02  2.7722e-03  0:02:06 1901

  iter  continuity  x-velocity  y-velocity  z-velocity      energy           k       omega     time/iter
   100  1.8967e-02  3.0491e-02  1.3988e-02  9.1377e-01  1.8781e-02  1.6794e-02  2.7255e-03  0:08:01 1900
   101  1.8466e-02  2.9715e-02  1.4304e-02  8.8803e-01  1.8268e-02  1.6652e-02  2.6874e-03  0:06:24 1899
   102  1.7825e-02  2.8803e-02  1.4838e-02  8.6491e-01  1.7618e-02  1.6501e-02  2.6499e-03  0:05:07 1898
   103  1.7058e-02  2.7790e-02  1.5595e-02  8.4594e-01  1.6841e-02  1.6443e-02  2.6116e-03  0:04:06 1897
   104  1.6202e-02  2.6720e-02  1.6570e-02  8.2914e-01  1.5979e-02  1.6551e-02  2.5804e-03  0:03:16 1896
   105  1.5272e-02  2.5655e-02  1.7724e-02  8.1444e-01  1.5042e-02  1.6608e-02  2.5389e-03  0:02:37 1895
   106  1.4275e-02  2.4031e-02  1.9040e-02  7.9953e-01  1.4042e-02  1.6602e-02  2.4961e-03  0:02:06 1894
   107  1.3251e-02  2.2614e-02  2.0419e-02  7.8660e-01  1.3017e-02  1.6543e-02  2.4726e-03  0:07:59 1893
   108  1.2236e-02  2.1558e-02  2.1854e-02  7.7663e-01  1.2004e-02  1.6429e-02  2.4211e-03  0:06:23 1892
   109  1.1255e-02  2.0758e-02  2.3330e-02  7.6999e-01  1.1028e-02  1.6234e-02  2.3907e-03  0:05:06 1891
   110  1.0352e-02  2.0430e-02  2.4808e-02  7.6826e-01  1.0136e-02  1.6092e-02  2.3676e-03  0:04:05 1890

  iter  continuity  x-velocity  y-velocity  z-velocity      energy           k       omega     time/iter
   111  9.5621e-03  2.0566e-02  2.6237e-02  7.6496e-01  9.3614e-03  1.5895e-02  2.3326e-03  0:03:16 1889
   112  8.9251e-03  2.1155e-02  2.7562e-02  7.6078e-01  8.7460e-03  1.5839e-02  2.3134e-03  0:02:37 1888
   113  8.4798e-03  2.2136e-02  2.8750e-02  7.5486e-01  8.3279e-03  1.6017e-02  2.2868e-03  0:02:05 1887
   114  8.2347e-03  2.3395e-02  2.9767e-02  7.4666e-01  8.1137e-03  1.6056e-02  2.2589e-03  0:07:57 1886
   115  8.0356e-03  2.4413e-02  3.0488e-02  7.3516e-01  7.9467e-03  1.6048e-02  2.2330e-03  0:06:22 1885
   116  8.0124e-03  2.5849e-02  3.1072e-02  7.2071e-01  7.9558e-03  1.5984e-02  2.2074e-03  0:05:05 1884
   117  8.1792e-03  2.7511e-02  3.1490e-02  7.0325e-01  8.1517e-03  1.5867e-02  2.1821e-03  0:04:04 1883
   118  8.4972e-03  2.9277e-02  3.1728e-02  6.8390e-01  8.4931e-03  1.5518e-02  2.1585e-03  0:03:15 1882
   119  8.9186e-03  3.1091e-02  3.1784e-02  6.6418e-01  8.9318e-03  1.5233e-02  2.1508e-03  0:02:36 1881
   120  9.3984e-03  3.2904e-02  3.1672e-02  6.4495e-01  9.4229e-03  1.4935e-02  2.1419e-03  0:02:05 1880
   121  9.9083e-03  3.4691e-02  3.1399e-02  6.2600e-01  9.9390e-03  1.4652e-02  2.1340e-03  0:07:56 1879

  iter  continuity  x-velocity  y-velocity  z-velocity      energy           k       omega     time/iter
   122  1.0425e-02  3.6426e-02  3.0970e-02  6.0849e-01  1.0458e-02  1.4455e-02  2.1206e-03  0:06:20 1878
   123  1.0929e-02  3.8068e-02  3.0415e-02  5.8967e-01  1.0960e-02  1.4266e-02  2.1126e-03  0:05:04 1877
   124  1.1408e-02  3.9581e-02  2.9758e-02  5.7231e-01  1.1434e-02  1.4156e-02  2.1134e-03  0:04:03 1876
   125  1.1855e-02  4.0942e-02  2.9021e-02  5.5589e-01  1.1875e-02  1.3962e-02  2.1035e-03  0:03:14 1875
   126  1.2265e-02  4.2134e-02  2.8224e-02  5.4409e-01  1.2275e-02  1.3674e-02  2.1021e-03  0:02:35 1874
   127  1.2632e-02  4.3145e-02  2.7388e-02  5.3682e-01  1.2631e-02  1.3478e-02  2.1014e-03  0:02:04 1873
   128  1.2961e-02  4.3960e-02  2.6539e-02  5.3407e-01  1.2948e-02  1.3235e-02  2.0973e-03  0:07:54 1872
   129  1.3255e-02  4.4572e-02  2.5701e-02  5.3723e-01  1.3228e-02  1.2978e-02  2.0890e-03  0:06:19 1871
   130  1.3510e-02  4.4972e-02  2.4903e-02  5.4597e-01  1.3468e-02  1.2790e-02  2.0933e-03  0:05:03 1870
   131  1.3728e-02  4.5177e-02  2.4230e-02  5.6042e-01  1.3670e-02  1.2679e-02  2.1021e-03  0:04:02 1869
   132  1.3903e-02  4.5162e-02  2.3672e-02  5.7756e-01  1.3828e-02  1.2536e-02  2.0976e-03  0:03:14 1868

  iter  continuity  x-velocity  y-velocity  z-velocity      energy           k       omega     time/iter
   133  1.4033e-02  4.4938e-02  2.3175e-02  5.9311e-01  1.3941e-02  1.2315e-02  2.1014e-03  0:02:35 1867
   134  1.4120e-02  4.4505e-02  2.2770e-02  6.0717e-01  1.4009e-02  1.2104e-02  2.1018e-03  0:02:04 1866
   135  1.4169e-02  4.3867e-02  2.2484e-02  6.2014e-01  1.4039e-02  1.1803e-02  2.0951e-03  0:07:52 1865
   136  1.4178e-02  4.3059e-02  2.2330e-02  6.3095e-01  1.4030e-02  1.1512e-02  2.0871e-03  0:06:17 1864
   137  1.4138e-02  4.2061e-02  2.2217e-02  6.3919e-01  1.3970e-02  1.1370e-02  2.0701e-03  0:05:02 1863
   138  1.4073e-02  4.0871e-02  2.2454e-02  6.4466e-01  1.3887e-02  1.1105e-02  2.0499e-03  0:04:01 1862
   139  1.3969e-02  3.9540e-02  2.2778e-02  6.4713e-01  1.3763e-02  1.0789e-02  2.0267e-03  0:03:13 1861
   140  1.3818e-02  3.8125e-02  2.3176e-02  6.4648e-01  1.3592e-02  1.0469e-02  2.0047e-03  0:02:34 1860
   141  1.3599e-02  3.6244e-02  2.3829e-02  6.4298e-01  1.3354e-02  1.0119e-02  1.9675e-03  0:02:03 1859
   142  1.3393e-02  3.5223e-02  2.4503e-02  6.3874e-01  1.3132e-02  9.7887e-03  1.9239e-03  0:01:39 1858
   143  1.3193e-02  3.4384e-02  2.5117e-02  6.3182e-01  1.2916e-02  9.4585e-03  1.8952e-03  0:07:30 1857

  iter  continuity  x-velocity  y-velocity  z-velocity      energy           k       omega     time/iter
   144  1.2910e-02  3.2844e-02  2.5603e-02  6.1719e-01  1.2615e-02  9.1329e-03  1.8493e-03  0:06:00 1856
   145  1.2566e-02  3.1059e-02  2.6057e-02  6.0118e-01  1.2254e-02  8.8237e-03  1.8089e-03  0:04:48 1855
   146  1.2196e-02  2.9429e-02  2.6580e-02  5.8569e-01  1.1870e-02  8.4925e-03  1.7771e-03  0:03:50 1854
   147  1.1777e-02  2.8655e-02  2.7011e-02  5.7077e-01  1.1438e-02  8.1437e-03  1.7143e-03  0:03:04 1853
   148  1.1359e-02  2.8452e-02  2.7604e-02  5.5529e-01  1.1011e-02  7.8062e-03  1.6570e-03  0:02:27 1852
   149  1.0960e-02  2.7764e-02  2.8210e-02  5.3866e-01  1.0604e-02  7.4872e-03  1.6017e-03  0:01:58 1851
   150  1.0547e-02  2.7100e-02  2.8682e-02  5.2150e-01  1.0186e-02  7.1715e-03  1.5506e-03  0:07:44 1850
   151  1.0112e-02  2.6508e-02  2.9019e-02  5.0382e-01  9.7460e-03  6.8983e-03  1.5085e-03  0:06:11 1849
   152  9.6493e-03  2.6076e-02  2.9231e-02  4.8583e-01  9.2803e-03  6.6533e-03  1.4667e-03  0:04:57 1848
   153  9.1545e-03  2.5916e-02  2.9342e-02  4.6708e-01  8.7840e-03  6.4275e-03  1.4178e-03  0:03:57 1847
   154  8.6859e-03  2.6036e-02  2.9381e-02  4.4825e-01  8.3178e-03  6.2122e-03  1.3901e-03  0:03:10 1846

  iter  continuity  x-velocity  y-velocity  z-velocity      energy           k       omega     time/iter
   155  8.2078e-03  2.6228e-02  2.9344e-02  4.2935e-01  7.8444e-03  6.0211e-03  1.3667e-03  0:02:32 1845
   156  7.7247e-03  2.6447e-02  2.9233e-02  4.1040e-01  7.3684e-03  5.8671e-03  1.3454e-03  0:02:01 1844
   157  7.2942e-03  2.6881e-02  2.9153e-02  3.9190e-01  6.9503e-03  5.7717e-03  1.3271e-03  0:01:37 1843
   158  6.8839e-03  2.7580e-02  2.8869e-02  3.7485e-01  6.5549e-03  5.7131e-03  1.3133e-03  0:07:26 1842
   159  6.4776e-03  2.8221e-02  2.8457e-02  3.5891e-01  6.1651e-03  5.6472e-03  1.3080e-03  0:05:57 1841
   160  6.0758e-03  2.8635e-02  2.7951e-02  3.4519e-01  5.7820e-03  5.5747e-03  1.3129e-03  0:04:45 1840
   161  5.6939e-03  2.8868e-02  2.7392e-02  3.3426e-01  5.4210e-03  5.5039e-03  1.3179e-03  0:03:48 1839
   162  5.2965e-03  2.8944e-02  2.6912e-02  3.2476e-01  5.0442e-03  5.4425e-03  1.3141e-03  0:03:02 1838
   163  5.0024e-03  2.9019e-02  2.6313e-02  3.1839e-01  4.7750e-03  5.4026e-03  1.3155e-03  0:02:26 1837
   164  4.7814e-03  2.8958e-02  2.5535e-02  3.1028e-01  4.5808e-03  5.3610e-03  1.3168e-03  0:01:57 1836
   165  4.5694e-03  2.8813e-02  2.4679e-02  2.9923e-01  4.3953e-03  5.3199e-03  1.3217e-03  0:07:40 1835

  iter  continuity  x-velocity  y-velocity  z-velocity      energy           k       omega     time/iter
   166  4.4210e-03  2.8667e-02  2.3777e-02  2.8962e-01  4.2745e-03  5.2768e-03  1.3343e-03  0:06:08 1834
   167  4.3151e-03  2.8439e-02  2.2851e-02  2.8425e-01  4.1950e-03  5.2297e-03  1.3488e-03  0:04:54 1833
   168  4.2427e-03  2.8106e-02  2.1914e-02  2.8333e-01  4.1466e-03  5.1795e-03  1.3558e-03  0:03:55 1832
   169  4.1992e-03  2.7664e-02  2.0967e-02  2.8762e-01  4.1238e-03  5.1082e-03  1.3582e-03  0:03:08 1831
   170  4.1767e-03  2.7128e-02  2.0004e-02  2.9608e-01  4.1186e-03  5.0350e-03  1.3614e-03  0:02:30 1830
   171  4.1651e-03  2.6510e-02  1.9023e-02  3.0873e-01  4.1208e-03  4.9648e-03  1.3827e-03  0:02:00 1829
   172  4.1561e-03  2.5822e-02  1.8023e-02  3.2415e-01  4.1223e-03  4.8836e-03  1.3962e-03  0:07:42 1828
   173  4.1429e-03  2.5067e-02  1.7007e-02  3.4181e-01  4.1168e-03  4.8080e-03  1.4082e-03  0:06:09 1827
   174  4.1227e-03  2.4281e-02  1.5981e-02  3.6074e-01  4.1021e-03  4.7508e-03  1.4183e-03  0:04:55 1826
   175  4.0932e-03  2.3451e-02  1.4952e-02  3.8116e-01  4.0762e-03  4.6828e-03  1.4194e-03  0:03:56 1825
   176  4.0540e-03  2.2577e-02  1.3929e-02  4.0206e-01  4.0391e-03  4.6194e-03  1.4214e-03  0:03:09 1824

  iter  continuity  x-velocity  y-velocity  z-velocity      energy           k       omega     time/iter
   177  4.0080e-03  2.1664e-02  1.2920e-02  4.2231e-01  3.9941e-03  4.5711e-03  1.4152e-03  0:02:31 1823
   178  3.9603e-03  2.0725e-02  1.1929e-02  4.4069e-01  3.9467e-03  4.5279e-03  1.4099e-03  0:02:01 1822
   179  3.9158e-03  1.9769e-02  1.0962e-02  4.5623e-01  3.9017e-03  4.4782e-03  1.4107e-03  0:07:41 1821
   180  3.8819e-03  1.8807e-02  1.0024e-02  4.7139e-01  3.8668e-03  4.4175e-03  1.4129e-03  0:06:08 1820
   181  3.8640e-03  1.7850e-02  9.1228e-03  4.8400e-01  3.8475e-03  4.3648e-03  1.4037e-03  0:04:54 1819
   182  3.8665e-03  1.6905e-02  8.2614e-03  4.9444e-01  3.8485e-03  4.3240e-03  1.3988e-03  0:03:55 1818
   183  3.8923e-03  1.5983e-02  7.4525e-03  5.0673e-01  3.8728e-03  4.3392e-03  1.3940e-03  0:03:08 1817
   184  3.9458e-03  1.5094e-02  6.7005e-03  5.1570e-01  3.9248e-03  4.3927e-03  1.3916e-03  0:02:31 1816
   185  4.0322e-03  1.4114e-02  6.0700e-03  5.2519e-01  4.0095e-03  4.4533e-03  1.3885e-03  0:02:00 1815
   186  4.1539e-03  1.3175e-02  5.5114e-03  5.3318e-01  4.1295e-03  4.5410e-03  1.3880e-03  0:07:39 1814
   187  4.2983e-03  1.2401e-02  4.9540e-03  5.3906e-01  4.2724e-03  4.6306e-03  1.3868e-03  0:06:07 1813

  iter  continuity  x-velocity  y-velocity  z-velocity      energy           k       omega     time/iter
   188  4.4585e-03  1.1721e-02  4.4850e-03  5.4230e-01  4.4312e-03  4.7159e-03  1.3629e-03  0:04:53 1812
   189  4.6285e-03  1.1139e-02  4.0749e-03  5.4257e-01  4.6000e-03  4.7897e-03  1.3392e-03  0:03:55 1811
   190  4.8050e-03  1.0636e-02  3.7411e-03  5.3944e-01  4.7754e-03  4.8562e-03  1.3281e-03  0:03:08 1810
   191  4.9855e-03  1.0202e-02  3.4958e-03  5.3405e-01  4.9548e-03  4.9115e-03  1.3200e-03  0:02:30 1809
   192  5.1667e-03  9.8308e-03  3.3346e-03  5.2667e-01  5.1349e-03  4.9757e-03  1.3151e-03  0:02:00 1808
   193  5.3437e-03  9.5170e-03  3.2403e-03  5.1726e-01  5.3108e-03  5.0473e-03  1.3042e-03  0:07:37 1807
   194  5.5132e-03  9.2561e-03  3.2032e-03  5.0590e-01  5.4791e-03  5.0974e-03  1.2906e-03  0:06:06 1806
   195  5.6711e-03  9.0416e-03  3.2128e-03  4.9238e-01  5.6358e-03  5.1420e-03  1.2753e-03  0:04:52 1805
   196  5.8138e-03  8.8641e-03  3.2593e-03  4.7681e-01  5.7772e-03  5.1719e-03  1.2592e-03  0:03:54 1804
   197  5.9385e-03  8.7134e-03  3.3342e-03  4.5985e-01  5.9006e-03  5.1831e-03  1.2418e-03  0:03:07 1803
   198  6.0450e-03  8.5790e-03  3.4304e-03  4.4301e-01  6.0057e-03  5.1855e-03  1.2293e-03  0:02:29 1802

  iter  continuity  x-velocity  y-velocity  z-velocity      energy           k       omega     time/iter
   199  6.1348e-03  8.4504e-03  3.5475e-03  4.2482e-01  6.0942e-03  5.1788e-03  1.2219e-03  0:01:59 1801
   200  6.2055e-03  8.3224e-03  3.6809e-03  4.0697e-01  6.1637e-03  5.1638e-03  1.2085e-03  0:01:36 1800
   201  6.2567e-03  8.1880e-03  3.8226e-03  3.9112e-01  6.2137e-03  5.1599e-03  1.1929e-03  0:07:16 1799
   202  6.2877e-03  8.0434e-03  3.9690e-03  3.7695e-01  6.2436e-03  5.1537e-03  1.1864e-03  0:05:49 1798
   203  6.2994e-03  7.8841e-03  4.1191e-03  3.6378e-01  6.2543e-03  5.1543e-03  1.1793e-03  0:04:39 1797
   204  6.2879e-03  7.7091e-03  4.2723e-03  3.5278e-01  6.2420e-03  5.1507e-03  1.1709e-03  0:03:43 1796
   205  6.2530e-03  7.5203e-03  4.4283e-03  3.4429e-01  6.2064e-03  5.1595e-03  1.1635e-03  0:02:58 1795
   206  6.1898e-03  7.3178e-03  4.5861e-03  3.3828e-01  6.1426e-03  5.1794e-03  1.1534e-03  0:02:23 1794
   207  6.1005e-03  7.1050e-03  4.7449e-03  3.3559e-01  6.0529e-03  5.1912e-03  1.1370e-03  0:01:54 1793
   208  5.9839e-03  6.8901e-03  4.9017e-03  3.3576e-01  5.9361e-03  5.1939e-03  1.1213e-03  0:07:30 1792
   209  5.8421e-03  6.6778e-03  5.0546e-03  3.3697e-01  5.7943e-03  5.1945e-03  1.1099e-03  0:05:59 1791

  iter  continuity  x-velocity  y-velocity  z-velocity      energy           k       omega     time/iter
   210  5.6782e-03  6.4741e-03  5.2012e-03  3.4041e-01  5.6305e-03  5.2266e-03  1.0914e-03  0:04:47 1790
   211  5.4888e-03  6.2864e-03  5.3404e-03  3.4444e-01  5.4416e-03  5.2394e-03  1.0768e-03  0:03:50 1789
   212  5.2744e-03  6.1221e-03  5.4710e-03  3.4875e-01  5.2279e-03  5.2414e-03  1.0667e-03  0:03:04 1788
   213  5.0392e-03  5.9896e-03  5.5917e-03  3.5290e-01  4.9936e-03  5.2400e-03  1.0533e-03  0:02:27 1787
   214  4.7873e-03  5.8962e-03  5.7001e-03  3.5640e-01  4.7429e-03  5.2232e-03  1.0402e-03  0:01:57 1786
   215  4.5225e-03  5.8474e-03  5.7948e-03  3.5929e-01  4.4796e-03  5.2203e-03  1.0298e-03  0:07:31 1785
   216  4.2489e-03  5.8476e-03  5.8750e-03  3.6096e-01  4.2078e-03  5.2266e-03  1.0161e-03  0:06:01 1784
   217  3.9696e-03  5.8967e-03  5.9394e-03  3.6041e-01  3.9307e-03  5.2429e-03  1.0020e-03  0:04:48 1783
   218  3.6887e-03  5.9911e-03  5.9869e-03  3.5748e-01  3.6522e-03  5.2490e-03  9.8848e-04  0:03:50 1782
   219  3.4078e-03  6.1254e-03  6.0165e-03  3.5044e-01  3.3742e-03  5.2730e-03  9.7154e-04  0:03:04 1781
   220  3.1314e-03  6.2921e-03  6.0272e-03  3.4149e-01  3.1012e-03  5.3073e-03  9.5443e-04  0:02:27 1780

  iter  continuity  x-velocity  y-velocity  z-velocity      energy           k       omega     time/iter
   221  2.8656e-03  6.4834e-03  6.0186e-03  3.3135e-01  2.8391e-03  5.3258e-03  9.4105e-04  0:07:54 1779
   222  2.6186e-03  6.6912e-03  5.9913e-03  3.2084e-01  2.5963e-03  5.3078e-03  9.3117e-04  0:06:19 1778
   223  2.4007e-03  6.9077e-03  5.9455e-03  3.0959e-01  2.3832e-03  5.2839e-03  9.3185e-04  0:05:03 1777
   224  2.2209e-03  7.1259e-03  5.8817e-03  2.9731e-01  2.2085e-03  5.2579e-03  9.1933e-04  0:09:57 1776
   225  2.0871e-03  7.3377e-03  5.8007e-03  2.8524e-01  2.0801e-03  5.2224e-03  9.2098e-04  0:07:58 1775
   226  2.0058e-03  7.5366e-03  5.7035e-03  2.7308e-01  2.0039e-03  5.1993e-03  9.1626e-04  0:06:22 1774
   227  1.9790e-03  7.7181e-03  5.5914e-03  2.6010e-01  1.9815e-03  5.1704e-03  9.0924e-04  0:05:05 1773
   228  2.0020e-03  7.8565e-03  5.4868e-03  2.4650e-01  2.0079e-03  5.0935e-03  9.0578e-04  0:04:04 1772
   229  2.0698e-03  7.9830e-03  5.3608e-03  2.3277e-01  2.0777e-03  5.0122e-03  9.0089e-04  0:03:15 1771
   230  2.1705e-03  8.1026e-03  5.2017e-03  2.1864e-01  2.1792e-03  4.9187e-03  8.9682e-04  0:02:36 1770
   231  2.2915e-03  8.2003e-03  5.0269e-03  2.0520e-01  2.3001e-03  4.8541e-03  8.9554e-04  0:07:59 1769

  iter  continuity  x-velocity  y-velocity  z-velocity      energy           k       omega     time/iter
   232  2.4227e-03  8.2663e-03  4.8456e-03  1.9275e-01  2.4306e-03  4.8075e-03  8.9775e-04  0:06:23 1768
   233  2.5547e-03  8.2969e-03  4.6614e-03  1.8131e-01  2.5614e-03  4.7843e-03  8.9731e-04  0:05:06 1767
   234  2.6827e-03  8.2902e-03  4.4760e-03  1.7101e-01  2.6878e-03  4.7710e-03  8.9774e-04  0:04:05 1766
   235  2.8003e-03  8.2503e-03  4.2890e-03  1.6285e-01  2.8036e-03  4.7442e-03  8.9735e-04  0:03:16 1765
   236  2.9042e-03  8.1775e-03  4.1019e-03  1.5662e-01  2.9056e-03  4.7116e-03  8.9293e-04  0:02:36 1764
   237  2.9915e-03  8.0734e-03  3.9164e-03  1.5223e-01  2.9908e-03  4.7046e-03  8.8741e-04  0:07:58 1763
   238  3.0610e-03  7.8764e-03  3.7755e-03  1.5018e-01  3.0582e-03  4.7142e-03  8.8385e-04  0:06:22 1762
   239  3.1110e-03  7.6859e-03  3.6119e-03  1.5072e-01  3.1061e-03  4.7406e-03  8.8296e-04  0:05:05 1761
   240  3.1405e-03  7.4864e-03  3.4478e-03  1.5347e-01  3.1336e-03  4.8049e-03  8.8032e-04  0:04:04 1760
   241  3.1495e-03  7.2700e-03  3.2955e-03  1.5853e-01  3.1406e-03  4.8653e-03  8.7864e-04  0:03:15 1759
   242  3.1383e-03  7.0352e-03  3.1610e-03  1.6597e-01  3.1276e-03  4.9242e-03  8.7397e-04  0:02:36 1758

  iter  continuity  x-velocity  y-velocity  z-velocity      energy           k       omega     time/iter
   243  3.1079e-03  6.7852e-03  3.0463e-03  1.7528e-01  3.0954e-03  4.9948e-03  8.6806e-04  0:07:56 1757
   244  3.0592e-03  6.5237e-03  2.9516e-03  1.8520e-01  3.0451e-03  5.0582e-03  8.6723e-04  0:06:21 1756
   245  2.9935e-03  6.2555e-03  2.8769e-03  1.9549e-01  2.9779e-03  5.1271e-03  8.7008e-04  0:05:04 1755
   246  2.9121e-03  5.9842e-03  2.8222e-03  2.0568e-01  2.8952e-03  5.1854e-03  8.7498e-04  0:04:03 1754
   247  2.8171e-03  5.7159e-03  2.7877e-03  2.1538e-01  2.7990e-03  5.2356e-03  8.7024e-04  0:03:15 1753
   248  2.7103e-03  5.4553e-03  2.7695e-03  2.2448e-01  2.6912e-03  5.2801e-03  8.6231e-04  0:02:36 1752
   249  2.5939e-03  5.2086e-03  2.7708e-03  2.3263e-01  2.5740e-03  5.3203e-03  8.5699e-04  0:07:55 1751
   250  2.4699e-03  4.9801e-03  2.7890e-03  2.3979e-01  2.4494e-03  5.3441e-03  8.4622e-04  0:06:19 1750
   251  2.3405e-03  4.7753e-03  2.8204e-03  2.4585e-01  2.3195e-03  5.3596e-03  8.4384e-04  0:05:03 1749
   252  2.2081e-03  4.5975e-03  2.8619e-03  2.5053e-01  2.1868e-03  5.3612e-03  8.4152e-04  0:04:03 1748
   253  2.0754e-03  4.4495e-03  2.9099e-03  2.5331e-01  2.0540e-03  5.3528e-03  8.3813e-04  0:03:14 1747

  iter  continuity  x-velocity  y-velocity  z-velocity      energy           k       omega     time/iter
   254  1.9452e-03  4.3356e-03  2.9613e-03  2.5424e-01  1.9239e-03  5.3287e-03  8.3475e-04  0:02:35 1746
   255  1.8215e-03  4.2574e-03  3.0122e-03  2.5358e-01  1.8005e-03  5.2990e-03  8.2893e-04  0:02:04 1745
   256  1.7074e-03  4.2157e-03  3.0602e-03  2.5203e-01  1.6870e-03  5.2629e-03  8.2224e-04  0:07:28 1744
   257  1.6049e-03  4.2058e-03  3.1033e-03  2.4932e-01  1.5853e-03  5.2237e-03  8.1159e-04  0:05:58 1743
   258  1.5172e-03  4.2221e-03  3.1390e-03  2.4544e-01  1.4987e-03  5.1979e-03  8.0659e-04  0:04:46 1742
   259  1.4469e-03  4.2580e-03  3.1658e-03  2.4068e-01  1.4298e-03  5.1825e-03  8.0450e-04  0:03:49 1741
   260  1.3963e-03  4.3089e-03  3.1825e-03  2.3503e-01  1.3808e-03  5.1605e-03  8.0291e-04  0:03:03 1740
   261  1.3657e-03  4.3700e-03  3.1884e-03  2.2852e-01  1.3520e-03  5.1279e-03  8.0050e-04  0:02:26 1739
   262  1.3514e-03  4.4354e-03  3.1821e-03  2.2120e-01  1.3396e-03  5.0913e-03  7.9812e-04  0:07:45 1738
   263  1.3555e-03  4.5041e-03  3.1650e-03  2.1290e-01  1.3454e-03  5.0598e-03  7.9466e-04  0:06:11 1737
   264  1.3729e-03  4.5647e-03  3.1367e-03  2.0355e-01  1.3644e-03  5.0399e-03  7.9199e-04  0:04:57 1736

  iter  continuity  x-velocity  y-velocity  z-velocity      energy           k       omega     time/iter
   265  1.3993e-03  4.6164e-03  3.0945e-03  1.9332e-01  1.3922e-03  5.0136e-03  7.8677e-04  0:03:57 1735
   266  1.4312e-03  4.6553e-03  3.0404e-03  1.8251e-01  1.4253e-03  4.9827e-03  7.8031e-04  0:03:10 1734
   267  1.4654e-03  4.6747e-03  2.9785e-03  1.7153e-01  1.4604e-03  4.9630e-03  7.7413e-04  0:02:32 1733
   268  1.4989e-03  4.6749e-03  2.9074e-03  1.6090e-01  1.4946e-03  4.9603e-03  7.6912e-04  0:02:01 1732
   269  1.5289e-03  4.6558e-03  2.8274e-03  1.5031e-01  1.5252e-03  4.9562e-03  7.5783e-04  0:07:23 1731
   270  1.5559e-03  4.6177e-03  2.7396e-03  1.4078e-01  1.5525e-03  4.9596e-03  7.4515e-04  0:05:54 1730
   271  1.5783e-03  4.5590e-03  2.6459e-03  1.3259e-01  1.5752e-03  4.9487e-03  7.3775e-04  0:04:43 1729
   272  1.5945e-03  4.4803e-03  2.5466e-03  1.2596e-01  1.5915e-03  4.9495e-03  7.2744e-04  0:03:47 1728
   273  1.6039e-03  4.3830e-03  2.4424e-03  1.2113e-01  1.6009e-03  4.9487e-03  7.1853e-04  0:03:01 1727
   274  1.6055e-03  4.2696e-03  2.3350e-03  1.1819e-01  1.6025e-03  4.9120e-03  7.1344e-04  0:02:25 1726
   275  1.6016e-03  4.1424e-03  2.2261e-03  1.1713e-01  1.5984e-03  4.8751e-03  7.0371e-04  0:07:41 1725

  iter  continuity  x-velocity  y-velocity  z-velocity      energy           k       omega     time/iter
   276  1.5928e-03  4.0051e-03  2.1179e-03  1.1776e-01  1.5893e-03  4.8510e-03  6.8941e-04  0:06:08 1724
   277  1.5808e-03  3.8604e-03  2.0118e-03  1.2016e-01  1.5770e-03  4.8475e-03  6.7653e-04  0:04:55 1723
   278  1.5651e-03  3.7119e-03  1.9094e-03  1.2418e-01  1.5609e-03  4.8321e-03  6.6437e-04  0:03:56 1722
   279  1.5484e-03  3.5636e-03  1.8123e-03  1.2963e-01  1.5437e-03  4.8136e-03  6.5663e-04  0:03:08 1721
   280  1.5327e-03  3.4193e-03  1.7228e-03  1.3621e-01  1.5274e-03  4.7966e-03  6.4908e-04  0:02:31 1720
   281  1.5198e-03  3.2815e-03  1.6424e-03  1.4366e-01  1.5138e-03  4.8088e-03  6.4383e-04  0:07:44 1719
   282  1.5125e-03  3.1558e-03  1.5692e-03  1.5159e-01  1.5056e-03  4.8257e-03  6.3496e-04  0:06:11 1718
   283  1.5127e-03  3.0465e-03  1.5083e-03  1.5974e-01  1.5049e-03  4.8286e-03  6.2892e-04  0:04:57 1717
   284  1.5214e-03  2.9552e-03  1.4618e-03  1.6739e-01  1.5126e-03  4.8387e-03  6.2125e-04  0:03:57 1716
   285  1.5399e-03  2.8818e-03  1.4295e-03  1.7467e-01  1.5299e-03  4.8542e-03  6.1126e-04  0:03:10 1715
   286  1.5692e-03  2.8320e-03  1.4114e-03  1.8157e-01  1.5580e-03  4.8678e-03  6.0523e-04  0:02:32 1714

  iter  continuity  x-velocity  y-velocity  z-velocity      energy           k       omega     time/iter
   287  1.6101e-03  2.8058e-03  1.4068e-03  1.8805e-01  1.5975e-03  4.8892e-03  6.0339e-04  0:02:01 1713
   288  1.6627e-03  2.8025e-03  1.4145e-03  1.9415e-01  1.6487e-03  4.8841e-03  6.0044e-04  0:07:19 1712
   289  1.7265e-03  2.8199e-03  1.4328e-03  1.9979e-01  1.7110e-03  4.8789e-03  5.9411e-04  0:05:51 1711
   290  1.8004e-03  2.8523e-03  1.4604e-03  2.0505e-01  1.7835e-03  4.8667e-03  5.8521e-04  0:04:41 1710
   291  1.8828e-03  2.8968e-03  1.4955e-03  2.1009e-01  1.8643e-03  4.8533e-03  5.7786e-04  0:03:45 1709
   292  1.9721e-03  2.9487e-03  1.5367e-03  2.1452e-01  1.9522e-03  4.8241e-03  5.6804e-04  0:03:00 1708
   293  2.0666e-03  3.0033e-03  1.5828e-03  2.1843e-01  2.0451e-03  4.7753e-03  5.4985e-04  0:02:24 1707
   294  2.1642e-03  3.0579e-03  1.6331e-03  2.2176e-01  2.1412e-03  4.7270e-03  5.3574e-04  0:07:36 1706
   295  2.2634e-03  3.1077e-03  1.6870e-03  2.2464e-01  2.2388e-03  4.6915e-03  5.2149e-04  0:06:05 1705
   296  2.3626e-03  3.1515e-03  1.7442e-03  2.2699e-01  2.3365e-03  4.6401e-03  5.0917e-04  0:04:51 1704
   297  2.4599e-03  3.1877e-03  1.8048e-03  2.2867e-01  2.4323e-03  4.5725e-03  4.9843e-04  0:03:53 1703

  iter  continuity  x-velocity  y-velocity  z-velocity      energy           k       omega     time/iter
   298  2.5536e-03  3.2146e-03  1.8670e-03  2.2989e-01  2.5245e-03  4.5061e-03  4.8798e-04  0:03:06 1702
   299  2.6422e-03  3.2312e-03  1.9311e-03  2.3079e-01  2.6118e-03  4.4362e-03  4.7693e-04  0:02:29 1701
   300  2.7249e-03  3.2366e-03  2.0007e-03  2.3134e-01  2.6930e-03  4.3660e-03  4.6259e-04  0:01:59 1700
   301  2.8002e-03  3.2307e-03  2.0741e-03  2.3160e-01  2.7670e-03  4.2859e-03  4.5158e-04  0:07:15 1699
   302  2.8672e-03  3.2131e-03  2.1515e-03  2.3140e-01  2.8326e-03  4.2081e-03  4.4256e-04  0:05:48 1698
   303  2.9247e-03  3.1861e-03  2.2343e-03  2.3069e-01  2.8888e-03  4.1229e-03  4.3174e-04  0:04:38 1697
   304  2.9722e-03  3.1499e-03  2.3218e-03  2.2965e-01  2.9351e-03  4.0344e-03  4.1965e-04  0:03:42 1696
   305  3.0092e-03  3.1055e-03  2.4135e-03  2.2826e-01  2.9710e-03  3.9418e-03  4.0855e-04  0:02:58 1695
   306  3.0343e-03  3.0554e-03  2.5088e-03  2.2652e-01  2.9949e-03  3.8466e-03  4.0421e-04  0:02:22 1694
   307  3.0468e-03  3.0009e-03  2.6067e-03  2.2441e-01  3.0064e-03  3.7554e-03  3.9678e-04  0:07:32 1693
   308  3.0472e-03  2.9445e-03  2.7069e-03  2.2179e-01  3.0057e-03  3.6705e-03  3.8907e-04  0:06:02 1692

  iter  continuity  x-velocity  y-velocity  z-velocity      energy           k       omega     time/iter
   309  3.0356e-03  2.8897e-03  2.8087e-03  2.1869e-01  2.9932e-03  3.5890e-03  3.8281e-04  0:04:49 1691
   310  3.0122e-03  2.8393e-03  2.9115e-03  2.1519e-01  2.9689e-03  3.4994e-03  3.7171e-04  0:03:51 1690
   311  2.9773e-03  2.7949e-03  3.0144e-03  2.1133e-01  2.9332e-03  3.3899e-03  3.6082e-04  0:03:05 1689
   312  2.9312e-03  2.7571e-03  3.1195e-03  2.0710e-01  2.8863e-03  3.2818e-03  3.5450e-04  0:02:28 1688
   313  2.8742e-03  2.7390e-03  3.2234e-03  2.0263e-01  2.8287e-03  3.1893e-03  3.4872e-04  0:01:58 1687
   314  2.8071e-03  2.7391e-03  3.3234e-03  1.9803e-01  2.7609e-03  3.0970e-03  3.4132e-04  0:07:12 1686
   315  2.7310e-03  2.7581e-03  3.4198e-03  1.9359e-01  2.6844e-03  2.9947e-03  3.3183e-04  0:05:45 1685
   316  2.6489e-03  2.8209e-03  3.5167e-03  1.8923e-01  2.6018e-03  2.8897e-03  3.2087e-04  0:04:36 1684
   317  2.5608e-03  2.9088e-03  3.6061e-03  1.8486e-01  2.5133e-03  2.7887e-03  3.1448e-04  0:03:41 1683
   318  2.4677e-03  3.0184e-03  3.6884e-03  1.8027e-01  2.4200e-03  2.6908e-03  3.0681e-04  0:02:56 1682
   319  2.3709e-03  3.1441e-03  3.7639e-03  1.7538e-01  2.3230e-03  2.5886e-03  3.0200e-04  0:02:21 1681

  iter  continuity  x-velocity  y-velocity  z-velocity      energy           k       omega     time/iter
   320  2.2716e-03  3.2786e-03  3.8325e-03  1.7016e-01  2.2237e-03  2.4813e-03  2.9717e-04  0:07:29 1680
   321  2.1713e-03  3.4166e-03  3.8932e-03  1.6457e-01  2.1235e-03  2.3853e-03  2.8982e-04  0:05:59 1679
   322  2.0710e-03  3.5532e-03  3.9451e-03  1.5839e-01  2.0233e-03  2.2931e-03  2.8279e-04  0:04:47 1678
   323  1.9716e-03  3.6836e-03  3.9873e-03  1.5198e-01  1.9242e-03  2.1953e-03  2.7618e-04  0:03:49 1677
   324  1.8737e-03  3.8037e-03  4.0189e-03  1.4536e-01  1.8268e-03  2.0957e-03  2.7171e-04  0:03:03 1676
   325  1.7783e-03  3.9111e-03  4.0394e-03  1.3884e-01  1.7319e-03  2.0091e-03  2.6732e-04  0:02:27 1675
   326  1.6857e-03  4.0041e-03  4.0484e-03  1.3227e-01  1.6401e-03  1.9205e-03  2.6133e-04  0:07:32 1674
   327  1.5905e-03  4.0496e-03  4.0405e-03  1.2582e-01  1.5457e-03  1.8445e-03  2.5714e-04  0:06:01 1673
   328  1.4786e-03  4.0165e-03  4.0152e-03  1.1954e-01  1.4343e-03  1.7805e-03  2.5475e-04  0:04:49 1672
   329  1.3873e-03  4.0672e-03  3.9841e-03  1.1346e-01  1.3441e-03  1.7273e-03  2.5221e-04  0:03:51 1671
   330  1.3055e-03  4.0988e-03  3.9472e-03  1.0756e-01  1.2636e-03  1.6841e-03  2.5124e-04  0:03:05 1670

  iter  continuity  x-velocity  y-velocity  z-velocity      energy           k       omega     time/iter
   331  1.2365e-03  4.1206e-03  3.9002e-03  1.0187e-01  1.1960e-03  1.6502e-03  2.4954e-04  0:02:28 1669
   332  1.1803e-03  4.1372e-03  3.8414e-03  9.6512e-02  1.1415e-03  1.6207e-03  2.5057e-04  0:07:32 1668
   333  1.1350e-03  4.1484e-03  3.7718e-03  9.1827e-02  1.0981e-03  1.5951e-03  2.5115e-04  0:06:01 1667
   334  1.0984e-03  4.1512e-03  3.6925e-03  8.7722e-02  1.0634e-03  1.5760e-03  2.5184e-04  0:04:49 1666
   335  1.0688e-03  4.1435e-03  3.6047e-03  8.4219e-02  1.0357e-03  1.5616e-03  2.5201e-04  0:03:51 1665
   336  1.0450e-03  4.1231e-03  3.5093e-03  8.1337e-02  1.0136e-03  1.5526e-03  2.5286e-04  0:03:05 1664
   337  1.0256e-03  4.0895e-03  3.4073e-03  7.9056e-02  9.9592e-04  1.5465e-03  2.5429e-04  0:08:00 1663
   338  1.0096e-03  4.0424e-03  3.2997e-03  7.7381e-02  9.8135e-04  1.5431e-03  2.5653e-04  0:06:24 1662
   339  9.9584e-04  3.9821e-03  3.1874e-03  7.5728e-02  9.6883e-04  1.5431e-03  2.5829e-04  0:05:07 1661
   340  9.8362e-04  3.9094e-03  3.0714e-03  7.4295e-02  9.5760e-04  1.5411e-03  2.5992e-04  0:04:05 1660
   341  9.7245e-04  3.8253e-03  2.9527e-03  7.3427e-02  9.4717e-04  1.5390e-03  2.5999e-04  0:03:16 1659

  iter  continuity  x-velocity  y-velocity  z-velocity      energy           k       omega     time/iter
   342  9.6209e-04  3.7309e-03  2.8325e-03  7.2783e-02  9.3731e-04  1.5402e-03  2.5905e-04  0:02:37 1658
   343  9.5260e-04  3.6276e-03  2.7118e-03  7.2147e-02  9.2808e-04  1.5453e-03  2.5933e-04  0:07:37 1657
   344  9.4432e-04  3.5169e-03  2.5920e-03  7.1776e-02  9.1985e-04  1.5527e-03  2.5860e-04  0:06:05 1656
   345  9.3783e-04  3.4001e-03  2.4740e-03  7.1550e-02  9.1323e-04  1.5625e-03  2.5699e-04  0:04:52 1655
   346  9.3388e-04  3.2790e-03  2.3592e-03  7.1281e-02  9.0901e-04  1.5749e-03  2.5509e-04  0:03:53 1654
   347  9.3345e-04  3.1555e-03  2.2485e-03  7.0973e-02  9.0818e-04  1.5873e-03  2.5414e-04  0:03:07 1653
   348  9.3749e-04  3.0313e-03  2.1429e-03  7.0768e-02  9.1176e-04  1.6004e-03  2.5324e-04  0:02:29 1652
   349  9.4687e-04  2.9084e-03  2.0436e-03  7.0617e-02  9.2067e-04  1.6133e-03  2.5178e-04  0:07:30 1651
   350  9.6227e-04  2.7881e-03  1.9520e-03  7.0438e-02  9.3561e-04  1.6246e-03  2.5140e-04  0:05:59 1650
   351  9.8420e-04  2.6720e-03  1.8688e-03  7.0154e-02  9.5713e-04  1.6329e-03  2.5058e-04  0:04:47 1649
   352  1.0126e-03  2.5617e-03  1.7948e-03  6.9784e-02  9.8520e-04  1.6413e-03  2.4868e-04  0:03:50 1648

  iter  continuity  x-velocity  y-velocity  z-velocity      energy           k       omega     time/iter
   353  1.0472e-03  2.4585e-03  1.7306e-03  6.9219e-02  1.0194e-03  1.6561e-03  2.4780e-04  0:03:04 1647
   354  1.0872e-03  2.3634e-03  1.6766e-03  6.8517e-02  1.0592e-03  1.6665e-03  2.4695e-04  0:02:27 1646
   355  1.1317e-03  2.2770e-03  1.6330e-03  6.7672e-02  1.1035e-03  1.6730e-03  2.4524e-04  0:07:26 1645
   356  1.1796e-03  2.1988e-03  1.6001e-03  6.6753e-02  1.1512e-03  1.6770e-03  2.4364e-04  0:05:57 1644
   357  1.2295e-03  2.1291e-03  1.5772e-03  6.5753e-02  1.2010e-03  1.6837e-03  2.4200e-04  0:04:45 1643
   358  1.2803e-03  2.0672e-03  1.5641e-03  6.4684e-02  1.2516e-03  1.6880e-03  2.4052e-04  0:03:48 1642
   359  1.3307e-03  2.0125e-03  1.5608e-03  6.3630e-02  1.3018e-03  1.6909e-03  2.3664e-04  0:03:02 1641
   360  1.3795e-03  1.9647e-03  1.5666e-03  6.2635e-02  1.3504e-03  1.6869e-03  2.3233e-04  0:02:26 1640
   361  1.4257e-03  1.9219e-03  1.5807e-03  6.1793e-02  1.3964e-03  1.6757e-03  2.2782e-04  0:01:57 1639
   362  1.4682e-03  1.8824e-03  1.6021e-03  6.1135e-02  1.4386e-03  1.6621e-03  2.2344e-04  0:07:01 1638
   363  1.5061e-03  1.8451e-03  1.6301e-03  6.0480e-02  1.4763e-03  1.6441e-03  2.1901e-04  0:05:36 1637

  iter  continuity  x-velocity  y-velocity  z-velocity      energy           k       omega     time/iter
   364  1.5386e-03  1.8092e-03  1.6637e-03  6.0016e-02  1.5085e-03  1.6276e-03  2.1500e-04  0:04:29 1636
   365  1.5650e-03  1.7741e-03  1.7022e-03  5.9579e-02  1.5346e-03  1.6131e-03  2.1232e-04  0:03:35 1635
   366  1.5849e-03  1.7389e-03  1.7448e-03  5.9324e-02  1.5543e-03  1.5966e-03  2.0996e-04  0:02:52 1634
   367  1.5978e-03  1.7041e-03  1.7908e-03  5.9131e-02  1.5669e-03  1.5775e-03  2.0778e-04  0:02:17 1633
   368  1.6034e-03  1.6704e-03  1.8396e-03  5.8863e-02  1.5722e-03  1.5536e-03  2.0519e-04  0:07:16 1632
   369  1.6016e-03  1.6384e-03  1.8905e-03  5.8426e-02  1.5701e-03  1.5279e-03  2.0194e-04  0:05:49 1631
   370  1.5920e-03  1.6091e-03  1.9429e-03  5.7949e-02  1.5604e-03  1.5041e-03  1.9724e-04  0:04:39 1630
   371  1.5749e-03  1.5839e-03  1.9960e-03  5.7408e-02  1.5432e-03  1.4824e-03  1.9412e-04  0:03:43 1629
   372  1.5503e-03  1.5646e-03  2.0492e-03  5.7018e-02  1.5184e-03  1.4617e-03  1.9044e-04  0:02:58 1628
   373  1.5183e-03  1.5526e-03  2.1018e-03  5.6857e-02  1.4864e-03  1.4416e-03  1.8678e-04  0:07:48 1627
   374  1.4793e-03  1.5498e-03  2.1532e-03  5.6814e-02  1.4474e-03  1.4264e-03  1.8332e-04  0:06:14 1626

  iter  continuity  x-velocity  y-velocity  z-velocity      energy           k       omega     time/iter
   375  1.4337e-03  1.5577e-03  2.2028e-03  5.6793e-02  1.4017e-03  1.4037e-03  1.8101e-04  0:04:59 1625
   376  1.3817e-03  1.5772e-03  2.2499e-03  5.6791e-02  1.3498e-03  1.3756e-03  1.7814e-04  0:03:59 1624
   377  1.3241e-03  1.6090e-03  2.2941e-03  5.6747e-02  1.2923e-03  1.3461e-03  1.7548e-04  0:03:11 1623
   378  1.2613e-03  1.6529e-03  2.3345e-03  5.6724e-02  1.2297e-03  1.3155e-03  1.7173e-04  0:02:33 1622
   379  1.1940e-03  1.7084e-03  2.3707e-03  5.6740e-02  1.1627e-03  1.2830e-03  1.6644e-04  0:02:02 1621
   380  1.1229e-03  1.7744e-03  2.4020e-03  5.6795e-02  1.0920e-03  1.2541e-03  1.6165e-04  0:07:02 1620
   381  1.0488e-03  1.8492e-03  2.4281e-03  5.6913e-02  1.0183e-03  1.2254e-03  1.5817e-04  0:05:37 1619
   382  9.7239e-04  1.9311e-03  2.4483e-03  5.7110e-02  9.4238e-04  1.1974e-03  1.5481e-04  0:04:30 1618
   383  8.9467e-04  2.0182e-03  2.4624e-03  5.7388e-02  8.6523e-04  1.1690e-03  1.5166e-04  0:03:36 1617
   384  8.1656e-04  2.1082e-03  2.4698e-03  5.7758e-02  7.8778e-04  1.1433e-03  1.4843e-04  0:02:52 1616
   385  7.3914e-04  2.1993e-03  2.4704e-03  5.8172e-02  7.1113e-04  1.1179e-03  1.4550e-04  0:02:18 1615

  iter  continuity  x-velocity  y-velocity  z-velocity      energy           k       omega     time/iter
   386  6.6357e-04  2.2896e-03  2.4638e-03  5.8647e-02  6.3648e-04  1.0945e-03  1.4236e-04  0:07:13 1614
   387  5.9125e-04  2.3775e-03  2.4499e-03  5.9200e-02  5.6527e-04  1.0713e-03  1.3969e-04  0:05:46 1613
   388  5.2382e-04  2.4615e-03  2.4286e-03  5.9806e-02  4.9922e-04  1.0474e-03  1.3690e-04  0:04:37 1612
   389  4.6322e-04  2.5402e-03  2.3999e-03  6.0487e-02  4.4041e-04  1.0239e-03  1.3523e-04  0:03:41 1611
   390  4.1187e-04  2.6123e-03  2.3640e-03  6.1217e-02  3.9140e-04  1.0010e-03  1.3361e-04  0:02:57 1610
   391  3.7234e-04  2.6771e-03  2.3208e-03  6.1924e-02  3.5490e-04  9.7962e-04  1.3126e-04  0:02:21 1609
   392  3.4686e-04  2.7333e-03  2.2708e-03  6.2687e-02  3.3312e-04  9.5967e-04  1.2904e-04  0:01:53 1608
   393  3.3639e-04  2.7805e-03  2.2143e-03  6.3427e-02  3.2667e-04  9.4457e-04  1.2665e-04  0:06:52 1607
   394  3.3982e-04  2.8181e-03  2.1515e-03  6.4132e-02  3.3392e-04  9.3079e-04  1.2496e-04  0:05:29 1606
   395  3.5421e-04  2.8457e-03  2.0831e-03  6.4744e-02  3.5146e-04  9.1864e-04  1.2325e-04  0:04:23 1605
   396  3.7583e-04  2.8632e-03  2.0095e-03  6.5201e-02  3.7542e-04  9.0676e-04  1.2190e-04  0:03:30 1604

  iter  continuity  x-velocity  y-velocity  z-velocity      energy           k       omega     time/iter
   397  4.0128e-04  2.8703e-03  1.9313e-03  6.5495e-02  4.0244e-04  8.9370e-04  1.2099e-04  0:02:48 1603
   398  4.2784e-04  2.8671e-03  1.8493e-03  6.5676e-02  4.2996e-04  8.7923e-04  1.2039e-04  0:02:15 1602
   399  4.5354e-04  2.8537e-03  1.7640e-03  6.5649e-02  4.5615e-04  8.6717e-04  1.1950e-04  0:01:48 1601
   400  4.7700e-04  2.8305e-03  1.6762e-03  6.5363e-02  4.7978e-04  8.5790e-04  1.1884e-04  0:06:46 1600
   401  4.9730e-04  2.7978e-03  1.5869e-03  6.4785e-02  5.0001e-04  8.4722e-04  1.1798e-04  0:05:25 1599
   402  5.1382e-04  2.7557e-03  1.4968e-03  6.3903e-02  5.1630e-04  8.3703e-04  1.1697e-04  0:04:20 1598
   403  5.2620e-04  2.7052e-03  1.4068e-03  6.2860e-02  5.2833e-04  8.2866e-04  1.1577e-04  0:03:27 1597
   404  5.3425e-04  2.6469e-03  1.3176e-03  6.1637e-02  5.3594e-04  8.2205e-04  1.1421e-04  0:02:46 1596
   405  5.3792e-04  2.5815e-03  1.2303e-03  6.0261e-02  5.3913e-04  8.1209e-04  1.1279e-04  0:07:32 1595
   406  5.3732e-04  2.5097e-03  1.1459e-03  5.8733e-02  5.3803e-04  8.0072e-04  1.1130e-04  0:06:01 1594
   407  5.3259e-04  2.4323e-03  1.0654e-03  5.7063e-02  5.3277e-04  7.8886e-04  1.0971e-04  0:04:49 1593

  iter  continuity  x-velocity  y-velocity  z-velocity      energy           k       omega     time/iter
   408  5.2384e-04  2.3501e-03  9.8966e-04  5.5250e-02  5.2350e-04  7.7586e-04  1.0688e-04  0:03:51 1592
   409  5.1133e-04  2.2642e-03  9.1975e-04  5.3329e-02  5.1047e-04  7.6305e-04  1.0405e-04  0:03:05 1591
   410  4.9534e-04  2.1756e-03  8.5658e-04  5.1341e-02  4.9398e-04  7.5072e-04  1.0218e-04  0:02:28 1590
   411  4.7622e-04  2.0853e-03  8.0097e-04  4.9332e-02  4.7438e-04  7.3730e-04  1.0107e-04  0:01:58 1589
   412  4.5436e-04  1.9944e-03  7.5353e-04  4.7271e-02  4.5207e-04  7.2321e-04  9.9624e-05  0:06:52 1588
   413  4.3019e-04  1.9039e-03  7.1467e-04  4.5260e-02  4.2748e-04  7.0827e-04  9.7794e-05  0:05:29 1587
   414  4.0412e-04  1.8161e-03  6.8389e-04  4.3363e-02  4.0102e-04  6.9328e-04  9.6144e-05  0:04:23 1586
   415  3.7660e-04  1.7303e-03  6.6183e-04  4.1605e-02  3.7314e-04  6.7807e-04  9.4490e-05  0:03:30 1585
   416  3.4806e-04  1.6468e-03  6.4743e-04  4.0032e-02  3.4427e-04  6.6322e-04  9.2689e-05  0:02:48 1584
   417  3.1898e-04  1.5663e-03  6.3941e-04  3.8633e-02  3.1491e-04  6.4879e-04  9.0654e-05  0:02:15 1583
   418  2.8990e-04  1.4902e-03  6.3638e-04  3.7427e-02  2.8556e-04  6.3379e-04  8.9291e-05  0:07:04 1582

  iter  continuity  x-velocity  y-velocity  z-velocity      energy           k       omega     time/iter
   419  2.6131e-04  1.4194e-03  6.3681e-04  3.6458e-02  2.5676e-04  6.1836e-04  8.7714e-05  0:05:39 1581
   420  2.3379e-04  1.3546e-03  6.3933e-04  3.5712e-02  2.2907e-04  6.0303e-04  8.6780e-05  0:04:31 1580
   421  2.0801e-04  1.2961e-03  6.4272e-04  3.5164e-02  2.0319e-04  5.8760e-04  8.5618e-05  0:03:37 1579
   422  1.8470e-04  1.2442e-03  6.4595e-04  3.4830e-02  1.7988e-04  5.7172e-04  8.4042e-05  0:02:53 1578
   423  1.7181e-04  1.2020e-03  6.6396e-04  3.4649e-02  1.6726e-04  5.5609e-04  8.2285e-05  0:02:18 1577
   424  1.6886e-04  1.1858e-03  6.7020e-04  3.4607e-02  1.6484e-04  5.4194e-04  8.0611e-05  0:07:06 1576
   425  1.7123e-04  1.1767e-03  6.7044e-04  3.4636e-02  1.6783e-04  5.2762e-04  7.9184e-05  0:05:41 1575
   426  1.7721e-04  1.1701e-03  6.6771e-04  3.4683e-02  1.7440e-04  5.1287e-04  7.7998e-05  0:04:32 1574
   427  1.8571e-04  1.1650e-03  6.6258e-04  3.4734e-02  1.8342e-04  4.9843e-04  7.7278e-05  0:03:38 1573
   428  1.9565e-04  1.1612e-03  6.5512e-04  3.4776e-02  1.9380e-04  4.8667e-04  7.6492e-05  0:08:08 1572
   429  2.0606e-04  1.1583e-03  6.4531e-04  3.4770e-02  2.0456e-04  4.7491e-04  7.5938e-05  0:06:30 1571

  iter  continuity  x-velocity  y-velocity  z-velocity      energy           k       omega     time/iter
   430  2.1615e-04  1.1555e-03  6.3309e-04  3.4709e-02  2.1493e-04  4.6316e-04  7.5838e-05  0:05:12 1570
   431  2.2533e-04  1.1517e-03  6.1846e-04  3.4639e-02  2.2431e-04  4.5191e-04  7.5578e-05  0:04:10 1569
   432  2.3316e-04  1.1461e-03  6.0148e-04  3.4455e-02  2.3231e-04  4.4186e-04  7.6094e-05  0:03:20 1568
   433  2.3935e-04  1.1379e-03  5.8227e-04  3.4095e-02  2.3862e-04  4.3317e-04  7.6825e-05  0:02:40 1567
   434  2.4371e-04  1.1268e-03  5.6101e-04  3.3565e-02  2.4307e-04  4.2618e-04  7.7866e-05  0:07:21 1566
   435  2.4612e-04  1.1125e-03  5.3792e-04  3.2941e-02  2.4555e-04  4.2161e-04  7.8761e-05  0:05:52 1565
   436  2.4657e-04  1.0950e-03  5.1324e-04  3.2200e-02  2.4606e-04  4.1750e-04  7.9762e-05  0:04:42 1564
   437  2.4509e-04  1.0745e-03  4.8723e-04  3.1445e-02  2.4463e-04  4.1425e-04  8.0739e-05  0:03:45 1563
   438  2.4181e-04  1.0513e-03  4.6018e-04  3.0667e-02  2.4138e-04  4.1186e-04  8.1707e-05  0:03:00 1562
   439  2.3686e-04  1.0258e-03  4.3237e-04  2.9909e-02  2.3647e-04  4.1020e-04  8.2812e-05  0:02:24 1561
   440  2.3050e-04  9.9847e-04  4.0411e-04  2.9132e-02  2.3014e-04  4.0836e-04  8.4194e-05  0:01:55 1560

  iter  continuity  x-velocity  y-velocity  z-velocity      energy           k       omega     time/iter
   441  2.2298e-04  9.6998e-04  3.7571e-04  2.8375e-02  2.2266e-04  4.0756e-04  8.5690e-05  0:06:44 1559
   442  2.1464e-04  9.4090e-04  3.4749e-04  2.7642e-02  2.1436e-04  4.0744e-04  8.7145e-05  0:05:23 1558
   443  2.0585e-04  9.1189e-04  3.1976e-04  2.6965e-02  2.0560e-04  4.0812e-04  8.8788e-05  0:04:18 1557
   444  1.9702e-04  8.8354e-04  2.9285e-04  2.6432e-02  1.9681e-04  4.0922e-04  9.0406e-05  0:03:26 1556
   445  1.8860e-04  8.5643e-04  2.6710e-04  2.5992e-02  1.8842e-04  4.1012e-04  9.2020e-05  0:02:45 1555
   446  1.8105e-04  8.3103e-04  2.4283e-04  2.5721e-02  1.8092e-04  4.1159e-04  9.3645e-05  0:02:12 1554
   447  1.7484e-04  8.0775e-04  2.2040e-04  2.5577e-02  1.7474e-04  4.1370e-04  9.5512e-05  0:06:56 1553
   448  1.7037e-04  7.8687e-04  2.0014e-04  2.5568e-02  1.7030e-04  4.1595e-04  9.7473e-05  0:05:33 1552
   449  1.6795e-04  7.6855e-04  1.8236e-04  2.5687e-02  1.6790e-04  4.1854e-04  9.9385e-05  0:04:26 1551
   450  1.6774e-04  7.5285e-04  1.6732e-04  2.5938e-02  1.6771e-04  4.2092e-04  1.0123e-04  0:03:33 1550
   451  1.6973e-04  7.3970e-04  1.5517e-04  2.6307e-02  1.6970e-04  4.2362e-04  1.0268e-04  0:02:50 1549

  iter  continuity  x-velocity  y-velocity  z-velocity      energy           k       omega     time/iter
   452  1.7375e-04  7.2893e-04  1.4592e-04  2.6769e-02  1.7372e-04  4.2692e-04  1.0402e-04  0:02:16 1548
   453  1.7952e-04  7.2028e-04  1.3938e-04  2.7293e-02  1.7948e-04  4.3067e-04  1.0538e-04  0:06:58 1547
   454  1.8668e-04  7.1344e-04  1.3523e-04  2.7859e-02  1.8662e-04  4.3442e-04  1.0681e-04  0:05:34 1546
   455  1.9485e-04  7.0807e-04  1.3300e-04  2.8446e-02  1.9476e-04  4.3845e-04  1.0786e-04  0:04:27 1545
   456  2.0366e-04  7.0381e-04  1.3217e-04  2.9015e-02  2.0355e-04  4.4220e-04  1.0893e-04  0:03:34 1544
   457  2.1278e-04  7.0031e-04  1.3221e-04  2.9551e-02  2.1263e-04  4.4660e-04  1.1010e-04  0:02:51 1543
   458  2.2192e-04  6.9721e-04  1.3273e-04  3.0000e-02  2.2175e-04  4.5077e-04  1.1110e-04  0:02:17 1542
   459  2.3086e-04  6.9427e-04  1.3327e-04  3.0307e-02  2.3066e-04  4.5532e-04  1.1209e-04  0:01:49 1541
   460  2.3937e-04  6.9126e-04  1.3356e-04  3.0547e-02  2.3914e-04  4.6015e-04  1.1294e-04  0:06:35 1540
   461  2.4730e-04  6.8797e-04  1.3346e-04  3.0727e-02  2.4705e-04  4.6596e-04  1.1375e-04  0:05:16 1539
   462  2.5456e-04  6.8424e-04  1.3285e-04  3.0852e-02  2.5428e-04  4.7158e-04  1.1450e-04  0:04:13 1538

  iter  continuity  x-velocity  y-velocity  z-velocity      energy           k       omega     time/iter
   463  2.6102e-04  6.7996e-04  1.3170e-04  3.0878e-02  2.6073e-04  4.7695e-04  1.1489e-04  0:03:22 1537
   464  2.6669e-04  6.7507e-04  1.3007e-04  3.0846e-02  2.6638e-04  4.8184e-04  1.1543e-04  0:02:41 1536
   465  2.7154e-04  6.6957e-04  1.2798e-04  3.0764e-02  2.7122e-04  4.8559e-04  1.1594e-04  0:02:09 1535
   466  2.7559e-04  6.6349e-04  1.2549e-04  3.0647e-02  2.7525e-04  4.8857e-04  1.1634e-04  0:06:50 1534
   467  2.7887e-04  6.5688e-04  1.2271e-04  3.0478e-02  2.7853e-04  4.9155e-04  1.1667e-04  0:05:28 1533
   468  2.8146e-04  6.4984e-04  1.1975e-04  3.0256e-02  2.8111e-04  4.9483e-04  1.1695e-04  0:04:22 1532
   469  2.8343e-04  6.4250e-04  1.1673e-04  2.9986e-02  2.8308e-04  4.9884e-04  1.1710e-04  0:03:30 1531
   470  2.8486e-04  6.3497e-04  1.1377e-04  2.9672e-02  2.8452e-04  5.0300e-04  1.1728e-04  0:02:48 1530
   471  2.8588e-04  6.2738e-04  1.1100e-04  2.9304e-02  2.8554e-04  5.0715e-04  1.1748e-04  0:02:14 1529
   472  2.8657e-04  6.1985e-04  1.0855e-04  2.8889e-02  2.8623e-04  5.1126e-04  1.1780e-04  0:01:47 1528
   473  2.8703e-04  6.1254e-04  1.0651e-04  2.8414e-02  2.8668e-04  5.1598e-04  1.1803e-04  0:06:31 1527

  iter  continuity  x-velocity  y-velocity  z-velocity      energy           k       omega     time/iter
   474  2.8736e-04  6.0556e-04  1.0493e-04  2.7872e-02  2.8701e-04  5.2124e-04  1.1803e-04  0:05:13 1526
   475  2.8767e-04  5.9903e-04  1.0395e-04  2.7319e-02  2.8731e-04  5.2622e-04  1.1777e-04  0:04:10 1525
   476  2.8806e-04  5.9301e-04  1.0360e-04  2.6765e-02  2.8769e-04  5.3110e-04  1.1756e-04  0:03:20 1524
   477  2.8864e-04  5.8756e-04  1.0393e-04  2.6213e-02  2.8824e-04  5.3498e-04  1.1733e-04  0:02:40 1523
   478  2.8949e-04  5.8275e-04  1.0492e-04  2.5681e-02  2.8906e-04  5.3826e-04  1.1716e-04  0:02:08 1522
   479  2.9067e-04  5.7860e-04  1.0657e-04  2.5153e-02  2.9019e-04  5.4163e-04  1.1691e-04  0:01:42 1521
   480  2.9223e-04  5.7513e-04  1.0886e-04  2.4635e-02  2.9170e-04  5.4556e-04  1.1648e-04  0:06:26 1520
   481  2.9424e-04  5.7232e-04  1.1180e-04  2.4135e-02  2.9363e-04  5.4955e-04  1.1621e-04  0:05:08 1519
   482  2.9673e-04  5.7013e-04  1.1536e-04  2.3685e-02  2.9603e-04  5.5345e-04  1.1598e-04  0:04:06 1518
   483  2.9971e-04  5.6847e-04  1.1953e-04  2.3284e-02  2.9890e-04  5.5690e-04  1.1575e-04  0:03:17 1517
   484  3.0318e-04  5.6725e-04  1.2429e-04  2.2951e-02  3.0224e-04  5.6102e-04  1.1549e-04  0:02:38 1516

  iter  continuity  x-velocity  y-velocity  z-velocity      energy           k       omega     time/iter
   485  3.0710e-04  5.6636e-04  1.2968e-04  2.2646e-02  3.0603e-04  5.6449e-04  1.1566e-04  0:02:06 1515
   486  3.1145e-04  5.6575e-04  1.3571e-04  2.2360e-02  3.1022e-04  5.6812e-04  1.1578e-04  0:06:43 1514
   487  3.1615e-04  5.6532e-04  1.4240e-04  2.2042e-02  3.1475e-04  5.7181e-04  1.1598e-04  0:05:23 1513
   488  3.2117e-04  5.6497e-04  1.4977e-04  2.1721e-02  3.1959e-04  5.7565e-04  1.1635e-04  0:04:18 1512
   489  3.2646e-04  5.6460e-04  1.5785e-04  2.1384e-02  3.2469e-04  5.7912e-04  1.1671e-04  0:03:26 1511
   490  3.3197e-04  5.6415e-04  1.6666e-04  2.1025e-02  3.2999e-04  5.8296e-04  1.1699e-04  0:02:45 1510
   491  3.3766e-04  5.6357e-04  1.7619e-04  2.0648e-02  3.3546e-04  5.8690e-04  1.1724e-04  0:02:12 1509
   492  3.4346e-04  5.6282e-04  1.8649e-04  2.0260e-02  3.4103e-04  5.9086e-04  1.1753e-04  0:01:45 1508
   493  3.4932e-04  5.6189e-04  1.9755e-04  1.9886e-02  3.4666e-04  5.9483e-04  1.1776e-04  0:06:26 1507
   494  3.5519e-04  5.6076e-04  2.0935e-04  1.9526e-02  3.5229e-04  5.9878e-04  1.1828e-04  0:05:08 1506
   495  3.6101e-04  5.5945e-04  2.2187e-04  1.9182e-02  3.5786e-04  6.0280e-04  1.1903e-04  0:04:06 1505

  iter  continuity  x-velocity  y-velocity  z-velocity      energy           k       omega     time/iter
   496  3.6674e-04  5.5797e-04  2.3509e-04  1.8868e-02  3.6334e-04  6.0682e-04  1.1970e-04  0:03:17 1504
   497  3.7233e-04  5.5637e-04  2.4897e-04  1.8523e-02  3.6867e-04  6.1004e-04  1.2058e-04  0:02:38 1503
   498  3.7772e-04  5.5471e-04  2.6344e-04  1.8174e-02  3.7381e-04  6.1339e-04  1.2131e-04  0:02:06 1502
   499  3.8288e-04  5.5304e-04  2.7845e-04  1.7805e-02  3.7871e-04  6.1708e-04  1.2190e-04  0:06:41 1501
   500  3.8775e-04  5.5145e-04  2.9393e-04  1.7446e-02  3.8333e-04  6.2141e-04  1.2226e-04  0:05:20 1500
   501  3.9230e-04  5.5000e-04  3.0980e-04  1.7069e-02  3.8762e-04  6.2600e-04  1.2246e-04  0:04:16 1499
   502  3.9648e-04  5.4876e-04  3.2599e-04  1.6691e-02  3.9155e-04  6.3032e-04  1.2277e-04  0:03:25 1498
   503  4.0025e-04  5.4782e-04  3.4242e-04  1.6327e-02  3.9506e-04  6.3457e-04  1.2304e-04  0:02:44 1497
   504  4.0357e-04  5.4726e-04  3.5902e-04  1.5984e-02  3.9814e-04  6.3815e-04  1.2325e-04  0:02:11 1496
   505  4.0644e-04  5.4712e-04  3.7571e-04  1.5676e-02  4.0077e-04  6.4237e-04  1.2319e-04  0:06:44 1495
   506  4.0883e-04  5.4747e-04  3.9240e-04  1.5390e-02  4.0291e-04  6.4650e-04  1.2315e-04  0:05:23 1494

  iter  continuity  x-velocity  y-velocity  z-velocity      energy           k       omega     time/iter
   507  4.1073e-04  5.4836e-04  4.0903e-04  1.5147e-02  4.0457e-04  6.5132e-04  1.2317e-04  0:04:18 1493
   508  4.1212e-04  5.4982e-04  4.2552e-04  1.4961e-02  4.0574e-04  6.5657e-04  1.2310e-04  0:03:26 1492
   509  4.1302e-04  5.5188e-04  4.4179e-04  1.4827e-02  4.0642e-04  6.6152e-04  1.2292e-04  0:02:45 1491
   510  4.1344e-04  5.5456e-04  4.5777e-04  1.4757e-02  4.0661e-04  6.6705e-04  1.2268e-04  0:02:12 1490
   511  4.1338e-04  5.5784e-04  4.7341e-04  1.4750e-02  4.0634e-04  6.7228e-04  1.2229e-04  0:01:45 1489
   512  4.1287e-04  5.6171e-04  4.8863e-04  1.4778e-02  4.0563e-04  6.7641e-04  1.2182e-04  0:06:22 1488
   513  4.1194e-04  5.6616e-04  5.0338e-04  1.4923e-02  4.0450e-04  6.7944e-04  1.2165e-04  0:05:05 1487
   514  4.1062e-04  5.7111e-04  5.1760e-04  1.5142e-02  4.0299e-04  6.8273e-04  1.2135e-04  0:04:04 1486
   515  4.0893e-04  5.7649e-04  5.3124e-04  1.5403e-02  4.0113e-04  6.8592e-04  1.2095e-04  0:03:15 1485
   516  4.0692e-04  5.8222e-04  5.4424e-04  1.5679e-02  3.9894e-04  6.8899e-04  1.2065e-04  0:02:36 1484
   517  4.0461e-04  5.8822e-04  5.5657e-04  1.5864e-02  3.9647e-04  6.9144e-04  1.2013e-04  0:02:05 1483

  iter  continuity  x-velocity  y-velocity  z-velocity      energy           k       omega     time/iter
   518  4.0204e-04  5.9441e-04  5.6819e-04  1.5997e-02  3.9375e-04  6.9417e-04  1.1955e-04  0:06:36 1482
   519  3.9925e-04  6.0071e-04  5.7906e-04  1.6066e-02  3.9081e-04  6.9723e-04  1.1880e-04  0:05:17 1481
   520  3.9627e-04  6.0701e-04  5.8915e-04  1.6061e-02  3.8770e-04  7.0041e-04  1.1814e-04  0:04:13 1480
   521  3.9315e-04  6.1323e-04  5.9844e-04  1.5985e-02  3.8445e-04  7.0335e-04  1.1739e-04  0:03:22 1479
   522  3.8992e-04  6.1927e-04  6.0691e-04  1.5842e-02  3.8111e-04  7.0525e-04  1.1638e-04  0:02:42 1478
   523  3.8662e-04  6.2506e-04  6.1454e-04  1.5646e-02  3.7771e-04  7.0752e-04  1.1562e-04  0:02:09 1477
   524  3.8327e-04  6.3054e-04  6.2134e-04  1.5410e-02  3.7427e-04  7.0952e-04  1.1480e-04  0:01:43 1476
   525  3.7992e-04  6.3562e-04  6.2729e-04  1.5142e-02  3.7084e-04  7.1140e-04  1.1401e-04  0:06:18 1475
   526  3.7657e-04  6.4026e-04  6.3241e-04  1.4849e-02  3.6741e-04  7.1275e-04  1.1320e-04  0:05:02 1474
   527  3.7325e-04  6.4442e-04  6.3670e-04  1.4540e-02  3.6403e-04  7.1401e-04  1.1215e-04  0:04:01 1473
   528  3.6997e-04  6.4807e-04  6.4019e-04  1.4206e-02  3.6069e-04  7.1474e-04  1.1129e-04  0:03:13 1472

  iter  continuity  x-velocity  y-velocity  z-velocity      energy           k       omega     time/iter
   529  3.6674e-04  6.5117e-04  6.4290e-04  1.3858e-02  3.5742e-04  7.1394e-04  1.1057e-04  0:02:34 1471
   530  3.6357e-04  6.5371e-04  6.4486e-04  1.3504e-02  3.5421e-04  7.1291e-04  1.0994e-04  0:02:03 1470
   531  3.6048e-04  6.5568e-04  6.4609e-04  1.3161e-02  3.5108e-04  7.1203e-04  1.0889e-04  0:01:39 1469
   532  3.5746e-04  6.5705e-04  6.4664e-04  1.2838e-02  3.4803e-04  7.1372e-04  1.0799e-04  0:06:12 1468
   533  3.5455e-04  6.5783e-04  6.4654e-04  1.2532e-02  3.4508e-04  7.1394e-04  1.0701e-04  0:04:58 1467
   534  3.5176e-04  6.5802e-04  6.4584e-04  1.2282e-02  3.4227e-04  7.1553e-04  1.0586e-04  0:03:58 1466
   535  3.4913e-04  6.5762e-04  6.4458e-04  1.2064e-02  3.3961e-04  7.1585e-04  1.0470e-04  0:03:10 1465
   536  3.4667e-04  6.5664e-04  6.4281e-04  1.1874e-02  3.3713e-04  7.1455e-04  1.0356e-04  0:02:32 1464
   537  3.4444e-04  6.5510e-04  6.4058e-04  1.1718e-02  3.3488e-04  7.1282e-04  1.0252e-04  0:06:54 1463
   538  3.4246e-04  6.5301e-04  6.3793e-04  1.1579e-02  3.3288e-04  7.1104e-04  1.0161e-04  0:05:31 1462
   539  3.4075e-04  6.5038e-04  6.3491e-04  1.1486e-02  3.3116e-04  7.0691e-04  1.0079e-04  0:04:25 1461

  iter  continuity  x-velocity  y-velocity  z-velocity      energy           k       omega     time/iter
   540  3.3935e-04  6.4722e-04  6.3157e-04  1.1440e-02  3.2974e-04  7.0350e-04  9.9830e-05  0:03:32 1460
   541  3.3827e-04  6.4356e-04  6.2797e-04  1.1445e-02  3.2864e-04  7.0298e-04  9.8792e-05  0:02:49 1459
   542  3.3752e-04  6.3942e-04  6.2416e-04  1.1517e-02  3.2788e-04  7.0235e-04  9.7675e-05  0:02:15 1458
   543  3.3712e-04  6.3483e-04  6.2019e-04  1.1656e-02  3.2746e-04  7.0181e-04  9.6588e-05  0:01:48 1457
   544  3.3706e-04  6.2985e-04  6.1613e-04  1.1854e-02  3.2739e-04  7.0172e-04  9.5492e-05  0:06:18 1456
   545  3.3736e-04  6.2451e-04  6.1204e-04  1.2097e-02  3.2767e-04  7.0100e-04  9.4325e-05  0:05:02 1455
   546  3.3800e-04  6.1888e-04  6.0798e-04  1.2380e-02  3.2830e-04  6.9968e-04  9.3112e-05  0:04:01 1454
   547  3.3899e-04  6.1300e-04  6.0403e-04  1.2690e-02  3.2928e-04  6.9778e-04  9.2196e-05  0:03:13 1453
   548  3.4032e-04  6.0694e-04  6.0024e-04  1.3018e-02  3.3060e-04  6.9578e-04  9.1229e-05  0:02:34 1452
   549  3.4199e-04  6.0075e-04  5.9667e-04  1.3359e-02  3.3226e-04  6.9342e-04  9.0383e-05  0:02:03 1451
   550  3.4398e-04  5.9450e-04  5.9338e-04  1.3709e-02  3.3424e-04  6.9077e-04  8.9488e-05  0:06:29 1450

  iter  continuity  x-velocity  y-velocity  z-velocity      energy           k       omega     time/iter
   551  3.4629e-04  5.8825e-04  5.9040e-04  1.4068e-02  3.3653e-04  6.8708e-04  8.8554e-05  0:05:11 1449
   552  3.4888e-04  5.8203e-04  5.8777e-04  1.4432e-02  3.3912e-04  6.8241e-04  8.7571e-05  0:04:08 1448
   553  3.5176e-04  5.7591e-04  5.8554e-04  1.4798e-02  3.4198e-04  6.7700e-04  8.6709e-05  0:03:19 1447
   554  3.5488e-04  5.6992e-04  5.8372e-04  1.5169e-02  3.4509e-04  6.7084e-04  8.5466e-05  0:02:39 1446
   555  3.5822e-04  5.6412e-04  5.8233e-04  1.5547e-02  3.4841e-04  6.6368e-04  8.4740e-05  0:02:07 1445
   556  3.6174e-04  5.5854e-04  5.8140e-04  1.5933e-02  3.5191e-04  6.5898e-04  8.3917e-05  0:06:30 1444
   557  3.6541e-04  5.5321e-04  5.8092e-04  1.6325e-02  3.5556e-04  6.5437e-04  8.2889e-05  0:05:12 1443
   558  3.6919e-04  5.4819e-04  5.8091e-04  1.6719e-02  3.5932e-04  6.5152e-04  8.1943e-05  0:04:09 1442
   559  3.7303e-04  5.4350e-04  5.8136e-04  1.7118e-02  3.6314e-04  6.4892e-04  8.0988e-05  0:03:19 1441
   560  3.7689e-04  5.3916e-04  5.8228e-04  1.7532e-02  3.6698e-04  6.4558e-04  8.0138e-05  0:02:39 1440
   561  3.8072e-04  5.3519e-04  5.8367e-04  1.7968e-02  3.7078e-04  6.4105e-04  7.9243e-05  0:02:07 1439

  iter  continuity  x-velocity  y-velocity  z-velocity      energy           k       omega     time/iter
   562  3.8449e-04  5.3160e-04  5.8550e-04  1.8423e-02  3.7451e-04  6.3549e-04  7.8248e-05  0:06:29 1438
   563  3.8813e-04  5.2840e-04  5.8777e-04  1.8890e-02  3.7812e-04  6.2897e-04  7.7157e-05  0:05:11 1437
   564  3.9161e-04  5.2560e-04  5.9046e-04  1.9354e-02  3.8156e-04  6.2123e-04  7.5900e-05  0:04:09 1436
   565  3.9488e-04  5.2323e-04  5.9355e-04  1.9799e-02  3.8480e-04  6.1287e-04  7.4617e-05  0:03:19 1435
   566  3.9792e-04  5.2127e-04  5.9700e-04  2.0211e-02  3.8779e-04  6.0397e-04  7.3382e-05  0:02:39 1434
   567  4.0068e-04  5.1973e-04  6.0080e-04  2.0581e-02  3.9050e-04  5.9441e-04  7.2193e-05  0:02:07 1433
   568  4.0313e-04  5.1861e-04  6.0491e-04  2.0902e-02  3.9290e-04  5.8467e-04  7.1070e-05  0:01:42 1432
   569  4.0526e-04  5.1792e-04  6.0930e-04  2.1164e-02  3.9498e-04  5.7491e-04  7.0016e-05  0:06:07 1431
   570  4.0704e-04  5.1764e-04  6.1393e-04  2.1368e-02  3.9670e-04  5.6621e-04  6.8914e-05  0:04:54 1430
   571  4.0845e-04  5.1779e-04  6.1878e-04  2.1515e-02  3.9805e-04  5.5759e-04  6.7813e-05  0:03:55 1429
   572  4.0947e-04  5.1836e-04  6.2379e-04  2.1607e-02  3.9901e-04  5.4905e-04  6.6707e-05  0:03:08 1428

  iter  continuity  x-velocity  y-velocity  z-velocity      energy           k       omega     time/iter
   573  4.1011e-04  5.1934e-04  6.2893e-04  2.1647e-02  3.9959e-04  5.4058e-04  6.5573e-05  0:02:30 1427
   574  4.1036e-04  5.2073e-04  6.3417e-04  2.1638e-02  3.9977e-04  5.3229e-04  6.4472e-05  0:02:00 1426
   575  4.1022e-04  5.2251e-04  6.3945e-04  2.1583e-02  3.9957e-04  5.2384e-04  6.3413e-05  0:06:21 1425
   576  4.0971e-04  5.2467e-04  6.4474e-04  2.1475e-02  3.9899e-04  5.1501e-04  6.2384e-05  0:05:05 1424
   577  4.0885e-04  5.2719e-04  6.4999e-04  2.1318e-02  3.9806e-04  5.0616e-04  6.1383e-05  0:04:03 1423
   578  4.0764e-04  5.3005e-04  6.5517e-04  2.1116e-02  3.9679e-04  4.9753e-04  6.0408e-05  0:03:15 1422
   579  4.0612e-04  5.3324e-04  6.6023e-04  2.0871e-02  3.9520e-04  4.8870e-04  5.9448e-05  0:02:36 1421
   580  4.0409e-04  5.3418e-04  6.6467e-04  2.0573e-02  3.9310e-04  4.7975e-04  5.8490e-05  0:02:04 1420
   581  4.0171e-04  5.3584e-04  6.6893e-04  2.0251e-02  3.9067e-04  4.7092e-04  5.7563e-05  0:06:23 1419
   582  3.9914e-04  5.3856e-04  6.7329e-04  1.9905e-02  3.8803e-04  4.6222e-04  5.6653e-05  0:05:06 1418
   583  3.9634e-04  5.4092e-04  6.7755e-04  1.9533e-02  3.8519e-04  4.5375e-04  5.5821e-05  0:04:05 1417

  iter  continuity  x-velocity  y-velocity  z-velocity      energy           k       omega     time/iter
   584  3.9340e-04  5.4344e-04  6.8150e-04  1.9139e-02  3.8220e-04  4.4535e-04  5.4982e-05  0:03:16 1416
   585  3.9033e-04  5.4637e-04  6.8504e-04  1.8721e-02  3.7909e-04  4.3742e-04  5.4174e-05  0:02:37 1415
   586  3.8714e-04  5.4972e-04  6.8818e-04  1.8256e-02  3.7585e-04  4.2980e-04  5.3361e-05  0:02:05 1414
   587  3.8382e-04  5.5336e-04  6.9093e-04  1.7766e-02  3.7250e-04  4.2186e-04  5.2732e-05  0:01:40 1413
   588  3.8038e-04  5.5720e-04  6.9328e-04  1.7264e-02  3.6903e-04  4.1388e-04  5.2103e-05  0:06:02 1412
   589  3.7684e-04  5.6115e-04  6.9525e-04  1.6759e-02  3.6547e-04  4.0599e-04  5.1464e-05  0:04:50 1411
   590  3.7322e-04  5.6513e-04  6.9682e-04  1.6252e-02  3.6182e-04  3.9852e-04  5.0830e-05  0:03:52 1410
   591  3.6953e-04  5.6909e-04  6.9799e-04  1.5738e-02  3.5812e-04  3.9099e-04  5.0258e-05  0:03:05 1409
   592  3.6580e-04  5.7299e-04  6.9877e-04  1.5224e-02  3.5438e-04  3.8357e-04  4.9708e-05  0:02:28 1408
   593  3.6206e-04  5.7678e-04  6.9915e-04  1.4718e-02  3.5062e-04  3.7629e-04  4.9212e-05  0:01:58 1407
   594  3.5831e-04  5.8041e-04  6.9913e-04  1.4218e-02  3.4687e-04  3.6909e-04  4.8786e-05  0:06:16 1406

  iter  continuity  x-velocity  y-velocity  z-velocity      energy           k       omega     time/iter
   595  3.5459e-04  5.8384e-04  6.9871e-04  1.3741e-02  3.4316e-04  3.6207e-04  4.8365e-05  0:05:00 1405
   596  3.5092e-04  5.8704e-04  6.9790e-04  1.3277e-02  3.3949e-04  3.5530e-04  4.8004e-05  0:04:00 1404
   597  3.4732e-04  5.8998e-04  6.9671e-04  1.2827e-02  3.3591e-04  3.4877e-04  4.7660e-05  0:03:12 1403
   598  3.4382e-04  5.9265e-04  6.9515e-04  1.2388e-02  3.3242e-04  3.4257e-04  4.7351e-05  0:02:33 1402
   599  3.4044e-04  5.9501e-04  6.9322e-04  1.1965e-02  3.2906e-04  3.3674e-04  4.7070e-05  0:02:03 1401
   600  3.3719e-04  5.9704e-04  6.9096e-04  1.1558e-02  3.2584e-04  3.3134e-04  4.6834e-05  0:01:38 1400
   601  3.3409e-04  5.9872e-04  6.8836e-04  1.1171e-02  3.2278e-04  3.2652e-04  4.6627e-05  0:05:58 1399
   602  3.3115e-04  6.0004e-04  6.8544e-04  1.0804e-02  3.1988e-04  3.2209e-04  4.6424e-05  0:04:46 1398
   603  3.2838e-04  6.0097e-04  6.8223e-04  1.0459e-02  3.1715e-04  3.1781e-04  4.6242e-05  0:03:49 1397
   604  3.2576e-04  6.0152e-04  6.7874e-04  1.0141e-02  3.1458e-04  3.1439e-04  4.5996e-05  0:03:03 1396
   605  3.2331e-04  6.0166e-04  6.7500e-04  9.8471e-03  3.1218e-04  3.1124e-04  4.5779e-05  0:02:26 1395

  iter  continuity  x-velocity  y-velocity  z-velocity      energy           k       omega     time/iter
   606  3.2101e-04  6.0141e-04  6.7102e-04  9.5803e-03  3.0993e-04  3.0829e-04  4.5565e-05  0:01:57 1394
   607  3.1885e-04  6.0076e-04  6.6683e-04  9.3409e-03  3.0783e-04  3.0575e-04  4.5265e-05  0:06:12 1393
   608  3.1683e-04  5.9973e-04  6.6247e-04  9.1301e-03  3.0587e-04  3.0262e-04  4.5007e-05  0:04:57 1392
   609  3.1493e-04  5.9833e-04  6.5797e-04  8.9435e-03  3.0403e-04  2.9729e-04  4.4869e-05  0:03:58 1391
   610  3.1316e-04  5.9657e-04  6.5336e-04  8.7837e-03  3.0232e-04  2.9335e-04  4.4662e-05  0:03:10 1390
   611  3.1149e-04  5.9447e-04  6.4867e-04  8.6474e-03  3.0072e-04  2.9134e-04  4.4422e-05  0:02:32 1389
   612  3.0994e-04  5.9206e-04  6.4394e-04  8.5330e-03  2.9923e-04  2.9055e-04  4.4206e-05  0:02:01 1388
   613  3.0850e-04  5.8936e-04  6.3918e-04  8.4326e-03  2.9785e-04  2.8886e-04  4.4019e-05  0:01:37 1387
   614  3.0717e-04  5.8639e-04  6.3443e-04  8.3365e-03  2.9658e-04  2.8644e-04  4.3827e-05  0:05:55 1386
   615  3.0595e-04  5.8318e-04  6.2970e-04  8.2375e-03  2.9542e-04  2.8507e-04  4.3648e-05  0:04:44 1385
   616  3.0484e-04  5.7976e-04  6.2502e-04  8.1380e-03  2.9437e-04  2.8412e-04  4.3470e-05  0:03:47 1384

  iter  continuity  x-velocity  y-velocity  z-velocity      energy           k       omega     time/iter
   617  3.0382e-04  5.7615e-04  6.2040e-04  8.0419e-03  2.9342e-04  2.8444e-04  4.3263e-05  0:03:01 1383
   618  3.0291e-04  5.7239e-04  6.1584e-04  7.9508e-03  2.9257e-04  2.8442e-04  4.3053e-05  0:02:25 1382
   619  3.0209e-04  5.6849e-04  6.1137e-04  7.8737e-03  2.9180e-04  2.8410e-04  4.2865e-05  0:01:56 1381
   620  3.0134e-04  5.6449e-04  6.0699e-04  7.8070e-03  2.9112e-04  2.8365e-04  4.2670e-05  0:06:09 1380
   621  3.0067e-04  5.6041e-04  6.0271e-04  7.7526e-03  2.9051e-04  2.8339e-04  4.2462e-05  0:04:55 1379
   622  3.0005e-04  5.5627e-04  5.9855e-04  7.7133e-03  2.8995e-04  2.8275e-04  4.2232e-05  0:03:56 1378
   623  2.9948e-04  5.5211e-04  5.9450e-04  7.6846e-03  2.8944e-04  2.8182e-04  4.1981e-05  0:03:08 1377
   624  2.9894e-04  5.4793e-04  5.9058e-04  7.6641e-03  2.8897e-04  2.8072e-04  4.1658e-05  0:07:06 1376
[...]
  1838  9.0291e-05  1.6387e-04  1.8728e-04  5.2808e-02  8.7024e-05  9.0067e-05  1.4874e-05  0:00:28  162
  1839  9.0106e-05  1.6355e-04  1.8684e-04  5.5351e-02  8.6847e-05  9.0109e-05  1.4890e-05  0:00:22  161
  1840  8.9925e-05  1.6322e-04  1.8640e-04  6.3476e-02  8.6674e-05  9.0144e-05  1.4904e-05  0:00:18  160
  1841  8.9749e-05  1.6289e-04  1.8595e-04  6.6915e-02  8.6506e-05  9.0145e-05  1.4912e-05  0:00:46  159
  1842  8.9577e-05  1.6256e-04  1.8551e-04  6.7973e-02  8.6341e-05  9.0132e-05  1.4922e-05  0:00:37  158
  1843  8.9408e-05  1.6223e-04  1.8507e-04  6.9252e-02  8.6181e-05  9.0099e-05  1.4937e-05  0:00:29  157
  1844  8.9244e-05  1.6190e-04  1.8463e-04  7.0844e-02  8.6024e-05  9.0021e-05  1.4941e-05  0:00:23  156
  1845  8.9085e-05  1.6156e-04  1.8419e-04  7.2619e-02  8.5872e-05  8.9948e-05  1.4944e-05  0:00:18  155
  1846  8.8929e-05  1.6122e-04  1.8376e-04  7.4335e-02  8.5724e-05  8.9878e-05  1.4949e-05  0:00:15  154
  1847  8.8778e-05  1.6088e-04  1.8332e-04  7.5841e-02  8.5580e-05  8.9832e-05  1.4955e-05  0:00:42  153
  1848  8.8630e-05  1.6054e-04  1.8289e-04  7.7083e-02  8.5440e-05  8.9801e-05  1.4961e-05  0:00:34  152

  iter  continuity  x-velocity  y-velocity  z-velocity      energy           k       omega     time/iter
  1849  8.8487e-05  1.6020e-04  1.8247e-04  7.8084e-02  8.5304e-05  8.9778e-05  1.4968e-05  0:00:27  151
  1850  8.8348e-05  1.5985e-04  1.8204e-04  7.8899e-02  8.5172e-05  8.9757e-05  1.4975e-05  0:00:21  150
  1851  8.8212e-05  1.5950e-04  1.8162e-04  7.9607e-02  8.5044e-05  8.9743e-05  1.4983e-05  0:00:17  149
  1852  8.8081e-05  1.5916e-04  1.8121e-04  8.0286e-02  8.4919e-05  8.9727e-05  1.4994e-05  0:00:13  148
  1853  8.7953e-05  1.5881e-04  1.8080e-04  8.0928e-02  8.4798e-05  8.9689e-05  1.5006e-05  0:00:40  147
  1854  8.7828e-05  1.5846e-04  1.8039e-04  8.2216e-02  8.4681e-05  8.9637e-05  1.5040e-05  0:00:32  146
  1855  8.7708e-05  1.5811e-04  1.7999e-04  8.3508e-02  8.4566e-05  8.9586e-05  1.5072e-05  0:00:25  145
  1856  8.7590e-05  1.5776e-04  1.7960e-04  8.4592e-02  8.4455e-05  8.9546e-05  1.5092e-05  0:00:20  144
  1857  8.7475e-05  1.5741e-04  1.7921e-04  8.5615e-02  8.4346e-05  8.9520e-05  1.5113e-05  0:00:16  143
  1858  8.7363e-05  1.5707e-04  1.7883e-04  8.6622e-02  8.4241e-05  8.9517e-05  1.5129e-05  0:00:13  142
  1859  8.7254e-05  1.5672e-04  1.7846e-04  8.7587e-02  8.4138e-05  8.9527e-05  1.5144e-05  0:00:38  141

  iter  continuity  x-velocity  y-velocity  z-velocity      energy           k       omega     time/iter
  1860  8.7147e-05  1.5638e-04  1.7809e-04  8.8499e-02  8.4037e-05  8.9548e-05  1.5159e-05  0:00:30  140
  1861  8.7043e-05  1.5604e-04  1.7774e-04  8.9377e-02  8.3939e-05  8.9591e-05  1.5173e-05  0:00:24  139
  1862  8.6942e-05  1.5571e-04  1.7739e-04  9.0252e-02  8.3843e-05  8.9652e-05  1.5188e-05  0:00:19  138
  1863  8.6843e-05  1.5539e-04  1.7705e-04  9.1172e-02  8.3749e-05  8.9713e-05  1.5202e-05  0:00:43  137
  1864  8.6745e-05  1.5506e-04  1.7672e-04  9.2155e-02  8.3656e-05  8.9763e-05  1.5217e-05  0:00:34  136
  1865  8.6650e-05  1.5474e-04  1.7640e-04  9.3183e-02  8.3566e-05  8.9800e-05  1.5232e-05  0:00:27  135
  1866  8.6557e-05  1.5443e-04  1.7609e-04  9.4226e-02  8.3478e-05  8.9824e-05  1.5250e-05  0:00:21  134
  1867  8.6465e-05  1.5412e-04  1.7578e-04  9.5247e-02  8.3390e-05  8.9839e-05  1.5268e-05  0:00:17  133
  1868  8.6374e-05  1.5382e-04  1.7549e-04  9.6219e-02  8.3304e-05  8.9845e-05  1.5284e-05  0:00:13  132
  1869  8.6284e-05  1.5352e-04  1.7520e-04  9.7116e-02  8.3218e-05  8.9840e-05  1.5294e-05  0:00:37  131
  1870  8.6195e-05  1.5323e-04  1.7492e-04  9.7944e-02  8.3133e-05  8.9836e-05  1.5308e-05  0:00:29  130

  iter  continuity  x-velocity  y-velocity  z-velocity      energy           k       omega     time/iter
  1871  8.6106e-05  1.5294e-04  1.7465e-04  9.8713e-02  8.3048e-05  8.9847e-05  1.5328e-05  0:00:23  129
  1872  8.6017e-05  1.5266e-04  1.7438e-04  9.9445e-02  8.2963e-05  8.9863e-05  1.5344e-05  0:00:18  128
  1873  8.5929e-05  1.5239e-04  1.7413e-04  1.0018e-01  8.2878e-05  8.9874e-05  1.5331e-05  0:00:15  127
  1874  8.5840e-05  1.5212e-04  1.7388e-04  1.0094e-01  8.2792e-05  8.9789e-05  1.5340e-05  0:00:12  126
  1875  8.5751e-05  1.5186e-04  1.7364e-04  1.0173e-01  8.2706e-05  8.9750e-05  1.5369e-05  0:00:34  125
  1876  8.5662e-05  1.5160e-04  1.7340e-04  1.0254e-01  8.2620e-05  8.9583e-05  1.5396e-05  0:00:27  124
  1877  8.5573e-05  1.5135e-04  1.7318e-04  1.0335e-01  8.2533e-05  8.9339e-05  1.5412e-05  0:00:22  123
  1878  8.5484e-05  1.5111e-04  1.7296e-04  1.0411e-01  8.2447e-05  8.9084e-05  1.5435e-05  0:00:17  122
  1879  8.5396e-05  1.5087e-04  1.7275e-04  1.0480e-01  8.2362e-05  8.8885e-05  1.5462e-05  0:00:14  121
  1880  8.5309e-05  1.5065e-04  1.7255e-04  1.0570e-01  8.2277e-05  8.8656e-05  1.5496e-05  0:00:11  120
  1881  8.5224e-05  1.5042e-04  1.7235e-04  1.0757e-01  8.2194e-05  8.8518e-05  1.5520e-05  0:00:32  119

  iter  continuity  x-velocity  y-velocity  z-velocity      energy           k       omega     time/iter
  1882  8.5140e-05  1.5021e-04  1.7217e-04  1.1050e-01  8.2112e-05  8.8471e-05  1.5543e-05  0:00:26  118
  1883  8.5059e-05  1.5000e-04  1.7198e-04  1.1368e-01  8.2033e-05  8.8472e-05  1.5559e-05  0:00:20  117
  1884  8.4980e-05  1.4980e-04  1.7181e-04  1.1661e-01  8.1956e-05  8.8440e-05  1.5577e-05  0:00:16  116
  1885  8.4903e-05  1.4960e-04  1.7164e-04  1.1948e-01  8.1882e-05  8.8465e-05  1.5592e-05  0:00:13  115
  1886  8.4830e-05  1.4941e-04  1.7147e-04  1.2268e-01  8.1811e-05  8.8592e-05  1.5603e-05  0:00:10  114
  1887  8.4759e-05  1.4922e-04  1.7131e-04  1.2641e-01  8.1742e-05  8.8724e-05  1.5612e-05  0:00:31  113
  1888  8.4692e-05  1.4904e-04  1.7116e-04  1.3054e-01  8.1676e-05  8.8884e-05  1.5618e-05  0:00:24  112
  1889  8.4627e-05  1.4887e-04  1.7101e-04  1.3513e-01  8.1614e-05  8.9091e-05  1.5622e-05  0:00:19  111
  1890  8.4565e-05  1.4870e-04  1.7086e-04  1.4013e-01  8.1554e-05  8.9306e-05  1.5623e-05  0:00:15  110
  1891  8.4507e-05  1.4853e-04  1.7072e-04  1.4549e-01  8.1497e-05  8.9569e-05  1.5598e-05  0:00:12  109
  1892  8.4451e-05  1.4838e-04  1.7059e-04  1.5101e-01  8.1444e-05  8.9946e-05  1.5570e-05  0:00:31  108

  iter  continuity  x-velocity  y-velocity  z-velocity      energy           k       omega     time/iter
  1893  8.4399e-05  1.4823e-04  1.7046e-04  1.5640e-01  8.1393e-05  9.0362e-05  1.5542e-05  0:00:25  107
  1894  8.4350e-05  1.4808e-04  1.7033e-04  1.6168e-01  8.1347e-05  9.0760e-05  1.5516e-05  0:00:20  106
  1895  8.4305e-05  1.4794e-04  1.7020e-04  1.6667e-01  8.1304e-05  9.1118e-05  1.5493e-05  0:00:16  105
  1896  8.4264e-05  1.4781e-04  1.7008e-04  1.7129e-01  8.1265e-05  9.1442e-05  1.5472e-05  0:00:12  104
  1897  8.4228e-05  1.4768e-04  1.6996e-04  1.7532e-01  8.1231e-05  9.1731e-05  1.5453e-05  0:00:10  103
  1898  8.4195e-05  1.4755e-04  1.6985e-04  1.7876e-01  8.1201e-05  9.2014e-05  1.5436e-05  0:00:28  102
  1899  8.4168e-05  1.4743e-04  1.6973e-04  1.8153e-01  8.1176e-05  9.2266e-05  1.5420e-05  0:00:22  101
  1900  8.4145e-05  1.4730e-04  1.6962e-04  1.8373e-01  8.1155e-05  9.2493e-05  1.5406e-05  0:00:18  100
  1901  8.4125e-05  1.4718e-04  1.6952e-04  1.8542e-01  8.1138e-05  9.2676e-05  1.5392e-05  0:00:14   99
  1902  8.4110e-05  1.4706e-04  1.6941e-04  1.8666e-01  8.1125e-05  9.2835e-05  1.5380e-05  0:00:11   98
  1903  8.4097e-05  1.4694e-04  1.6931e-04  1.8755e-01  8.1115e-05  9.2966e-05  1.5368e-05  0:00:09   97

  iter  continuity  x-velocity  y-velocity  z-velocity      energy           k       omega     time/iter
  1904  8.4087e-05  1.4682e-04  1.6921e-04  1.8833e-01  8.1108e-05  9.3069e-05  1.5357e-05  0:00:07   96
  1905  8.4079e-05  1.4670e-04  1.6911e-04  1.8893e-01  8.1102e-05  9.3145e-05  1.5349e-05  0:00:24   95
  1906  8.4072e-05  1.4658e-04  1.6902e-04  1.8922e-01  8.1097e-05  9.3175e-05  1.5346e-05  0:00:19   94
  1907  8.4066e-05  1.4646e-04  1.6893e-04  1.8931e-01  8.1093e-05  9.3156e-05  1.5344e-05  0:00:15   93
  1908  8.4060e-05  1.4634e-04  1.6884e-04  1.8929e-01  8.1089e-05  9.3092e-05  1.5322e-05  0:00:12   92
  1909  8.4054e-05  1.4621e-04  1.6875e-04  1.8922e-01  8.1085e-05  9.2952e-05  1.5289e-05  0:00:10   91
  1910  8.4047e-05  1.4609e-04  1.6866e-04  1.8919e-01  8.1080e-05  9.2747e-05  1.5286e-05  0:00:08   90
  1911  8.4039e-05  1.4596e-04  1.6858e-04  1.8928e-01  8.1074e-05  9.2607e-05  1.5269e-05  0:00:24   89
  1912  8.4031e-05  1.4584e-04  1.6850e-04  1.8955e-01  8.1067e-05  9.2419e-05  1.5257e-05  0:00:19   88
  1913  8.4023e-05  1.4571e-04  1.6842e-04  1.9005e-01  8.1060e-05  9.2200e-05  1.5245e-05  0:00:15   87
  1914  8.4015e-05  1.4559e-04  1.6835e-04  1.9082e-01  8.1053e-05  9.1954e-05  1.5232e-05  0:00:12   86

  iter  continuity  x-velocity  y-velocity  z-velocity      energy           k       omega     time/iter
  1915  8.4007e-05  1.4546e-04  1.6828e-04  1.9187e-01  8.1046e-05  9.1685e-05  1.5220e-05  0:00:09   85
  1916  8.4001e-05  1.4534e-04  1.6821e-04  1.9321e-01  8.1040e-05  9.1511e-05  1.5209e-05  0:00:07   84
  1917  8.3995e-05  1.4522e-04  1.6815e-04  1.9484e-01  8.1036e-05  9.1460e-05  1.5198e-05  0:00:22   83
  1918  8.3992e-05  1.4510e-04  1.6809e-04  1.9676e-01  8.1033e-05  9.1404e-05  1.5190e-05  0:00:18   82
  1919  8.3990e-05  1.4499e-04  1.6804e-04  1.9894e-01  8.1032e-05  9.1345e-05  1.5185e-05  0:00:14   81
  1920  8.3990e-05  1.4487e-04  1.6799e-04  2.0133e-01  8.1032e-05  9.1314e-05  1.5180e-05  0:00:11   80
  1921  8.3992e-05  1.4476e-04  1.6794e-04  2.0386e-01  8.1035e-05  9.1276e-05  1.5176e-05  0:00:09   79
  1922  8.3996e-05  1.4465e-04  1.6790e-04  2.0645e-01  8.1039e-05  9.1232e-05  1.5173e-05  0:00:07   78
  1923  8.4002e-05  1.4455e-04  1.6786e-04  2.0901e-01  8.1045e-05  9.1197e-05  1.5170e-05  0:00:21   77
  1924  8.4010e-05  1.4444e-04  1.6782e-04  2.1147e-01  8.1053e-05  9.1171e-05  1.5166e-05  0:00:16   76
  1925  8.4020e-05  1.4434e-04  1.6779e-04  2.1375e-01  8.1063e-05  9.1157e-05  1.5161e-05  0:00:13   75

  iter  continuity  x-velocity  y-velocity  z-velocity      energy           k       omega     time/iter
  1926  8.4032e-05  1.4424e-04  1.6777e-04  2.1583e-01  8.1074e-05  9.1143e-05  1.5153e-05  0:00:10   74
  1927  8.4046e-05  1.4414e-04  1.6775e-04  2.1768e-01  8.1088e-05  9.1129e-05  1.5143e-05  0:00:08   73
  1928  8.4062e-05  1.4404e-04  1.6773e-04  2.1930e-01  8.1104e-05  9.1117e-05  1.5129e-05  0:00:06   72
  1929  8.4080e-05  1.4394e-04  1.6772e-04  2.2073e-01  8.1122e-05  9.1106e-05  1.5113e-05  0:00:05   71
  1930  8.4100e-05  1.4385e-04  1.6771e-04  2.2195e-01  8.1143e-05  9.1097e-05  1.5093e-05  0:00:18   70
  1931  8.4123e-05  1.4376e-04  1.6771e-04  2.2300e-01  8.1165e-05  9.1100e-05  1.5070e-05  0:00:14   69
  1932  8.4147e-05  1.4367e-04  1.6772e-04  2.2391e-01  8.1189e-05  9.1105e-05  1.5044e-05  0:00:11   68
  1933  8.4173e-05  1.4358e-04  1.6773e-04  2.2448e-01  8.1214e-05  9.1102e-05  1.5014e-05  0:00:09   67
  1934  8.4201e-05  1.4349e-04  1.6774e-04  2.2456e-01  8.1242e-05  9.1106e-05  1.4983e-05  0:00:07   66
  1935  8.4230e-05  1.4341e-04  1.6776e-04  2.2405e-01  8.1270e-05  9.1096e-05  1.4965e-05  0:00:05   65
  1936  8.4260e-05  1.4333e-04  1.6778e-04  2.2302e-01  8.1299e-05  9.1082e-05  1.4948e-05  0:00:17   64

  iter  continuity  x-velocity  y-velocity  z-velocity      energy           k       omega     time/iter
  1937  8.4290e-05  1.4326e-04  1.6781e-04  2.2161e-01  8.1329e-05  9.1084e-05  1.4925e-05  0:00:13   63
  1938  8.4320e-05  1.4319e-04  1.6785e-04  2.2001e-01  8.1358e-05  9.1106e-05  1.4896e-05  0:00:11   62
  1939  8.4349e-05  1.4312e-04  1.6789e-04  2.1848e-01  8.1387e-05  9.1103e-05  1.4867e-05  0:00:08   61
  1940  8.4377e-05  1.4306e-04  1.6793e-04  2.1715e-01  8.1414e-05  9.1077e-05  1.4839e-05  0:00:07   60
  1941  8.4404e-05  1.4301e-04  1.6798e-04  2.1625e-01  8.1440e-05  9.1034e-05  1.4810e-05  0:00:05   59
  1942  8.4427e-05  1.4296e-04  1.6803e-04  2.1596e-01  8.1462e-05  9.0972e-05  1.4771e-05  0:00:16   58
  1943  8.4448e-05  1.4291e-04  1.6808e-04  2.1649e-01  8.1482e-05  9.0891e-05  1.4731e-05  0:00:12   57
  1944  8.4464e-05  1.4287e-04  1.6814e-04  2.1804e-01  8.1498e-05  9.0792e-05  1.4693e-05  0:00:10   56
  1945  8.4477e-05  1.4284e-04  1.6821e-04  2.2076e-01  8.1509e-05  9.0677e-05  1.4656e-05  0:00:08   55
  1946  8.4485e-05  1.4281e-04  1.6827e-04  2.2475e-01  8.1516e-05  9.0543e-05  1.4621e-05  0:00:06   54
  1947  8.4487e-05  1.4279e-04  1.6834e-04  2.3003e-01  8.1517e-05  9.0393e-05  1.4588e-05  0:00:05   53

  iter  continuity  x-velocity  y-velocity  z-velocity      energy           k       omega     time/iter
  1948  8.4484e-05  1.4277e-04  1.6842e-04  2.3661e-01  8.1512e-05  9.0218e-05  1.4557e-05  0:00:04   52
  1949  8.4475e-05  1.4276e-04  1.6849e-04  2.4440e-01  8.1502e-05  9.0016e-05  1.4529e-05  0:00:13   51
  1950  8.4459e-05  1.4276e-04  1.6857e-04  2.5322e-01  8.1484e-05  8.9802e-05  1.4501e-05  0:00:10   50
  1951  8.4437e-05  1.4276e-04  1.6866e-04  2.6295e-01  8.1460e-05  8.9579e-05  1.4474e-05  0:00:08   49
  1952  8.4408e-05  1.4276e-04  1.6874e-04  2.7341e-01  8.1430e-05  8.9371e-05  1.4460e-05  0:00:06   48
  1953  8.4372e-05  1.4277e-04  1.6882e-04  2.8435e-01  8.1392e-05  8.9173e-05  1.4446e-05  0:00:05   47
  1954  8.4329e-05  1.4279e-04  1.6891e-04  2.9554e-01  8.1348e-05  8.8971e-05  1.4432e-05  0:00:04   46
  1955  8.4280e-05  1.4281e-04  1.6899e-04  3.0673e-01  8.1296e-05  8.8760e-05  1.4418e-05  0:00:12   45
  1956  8.4224e-05  1.4284e-04  1.6908e-04  3.1773e-01  8.1239e-05  8.8539e-05  1.4406e-05  0:00:09   44
  1957  8.4162e-05  1.4287e-04  1.6916e-04  3.2834e-01  8.1175e-05  8.8309e-05  1.4394e-05  0:00:07   43
  1958  8.4093e-05  1.4290e-04  1.6924e-04  3.3838e-01  8.1104e-05  8.8067e-05  1.4370e-05  0:00:06   42

  iter  continuity  x-velocity  y-velocity  z-velocity      energy           k       omega     time/iter
  1959  8.4019e-05  1.4293e-04  1.6932e-04  3.4770e-01  8.1029e-05  8.7816e-05  1.4338e-05  0:00:04   41
  1960  8.3939e-05  1.4297e-04  1.6940e-04  3.5622e-01  8.0948e-05  8.7557e-05  1.4323e-05  0:00:04   40
  1961  8.3855e-05  1.4302e-04  1.6947e-04  3.6383e-01  8.0862e-05  8.7295e-05  1.4312e-05  0:00:03   39
  1962  8.3766e-05  1.4306e-04  1.6953e-04  3.7040e-01  8.0772e-05  8.7035e-05  1.4310e-05  0:00:10   38
  1963  8.3673e-05  1.4311e-04  1.6960e-04  3.7586e-01  8.0677e-05  8.6765e-05  1.4308e-05  0:00:08   37
  1964  8.3576e-05  1.4315e-04  1.6965e-04  3.8011e-01  8.0579e-05  8.6508e-05  1.4305e-05  0:00:06   36
  1965  8.3476e-05  1.4320e-04  1.6970e-04  3.8302e-01  8.0478e-05  8.6253e-05  1.4302e-05  0:00:05   35
  1966  8.3372e-05  1.4325e-04  1.6974e-04  3.8469e-01  8.0374e-05  8.6001e-05  1.4297e-05  0:00:04   34
  1967  8.3265e-05  1.4330e-04  1.6977e-04  3.8523e-01  8.0266e-05  8.5755e-05  1.4261e-05  0:00:03   33
  1968  8.3155e-05  1.4334e-04  1.6979e-04  3.8471e-01  8.0156e-05  8.5503e-05  1.4254e-05  0:00:09   32
  1969  8.3043e-05  1.4339e-04  1.6980e-04  3.8313e-01  8.0043e-05  8.5249e-05  1.4245e-05  0:00:07   31

  iter  continuity  x-velocity  y-velocity  z-velocity      energy           k       omega     time/iter
  1970  8.2928e-05  1.4344e-04  1.6981e-04  3.8043e-01  7.9928e-05  8.4996e-05  1.4229e-05  0:00:05   30
  1971  8.2810e-05  1.4348e-04  1.6980e-04  3.7702e-01  7.9811e-05  8.4750e-05  1.4213e-05  0:00:04   29
  1972  8.2690e-05  1.4352e-04  1.6978e-04  3.7311e-01  7.9692e-05  8.4517e-05  1.4198e-05  0:00:03   28
  1973  8.2568e-05  1.4356e-04  1.6975e-04  3.6865e-01  7.9571e-05  8.4290e-05  1.4182e-05  0:00:02   27
  1974  8.2444e-05  1.4359e-04  1.6971e-04  3.6385e-01  7.9447e-05  8.4077e-05  1.4167e-05  0:00:07   26
  1975  8.2317e-05  1.4362e-04  1.6966e-04  3.5886e-01  7.9321e-05  8.3878e-05  1.4153e-05  0:00:05   25
  1976  8.2189e-05  1.4365e-04  1.6960e-04  3.5399e-01  7.9194e-05  8.3690e-05  1.4139e-05  0:00:04   24
  1977  8.2058e-05  1.4367e-04  1.6953e-04  3.4916e-01  7.9064e-05  8.3509e-05  1.4125e-05  0:00:03   23
  1978  8.1924e-05  1.4368e-04  1.6944e-04  3.4437e-01  7.8933e-05  8.3327e-05  1.4110e-05  0:00:02   22
  1979  8.1789e-05  1.4370e-04  1.6935e-04  3.3995e-01  7.8799e-05  8.3147e-05  1.4095e-05  0:00:02   21
  1980  8.1651e-05  1.4370e-04  1.6924e-04  3.3555e-01  7.8664e-05  8.2967e-05  1.4079e-05  0:00:05   20

  iter  continuity  x-velocity  y-velocity  z-velocity      energy           k       omega     time/iter
  1981  8.1511e-05  1.4370e-04  1.6913e-04  3.3109e-01  7.8526e-05  8.2784e-05  1.4063e-05  0:00:04   19
  1982  8.1369e-05  1.4369e-04  1.6900e-04  3.2642e-01  7.8386e-05  8.2600e-05  1.4045e-05  0:00:03   18
  1983  8.1224e-05  1.4367e-04  1.6887e-04  3.2152e-01  7.8243e-05  8.2411e-05  1.4025e-05  0:00:02   17
  1984  8.1076e-05  1.4364e-04  1.6872e-04  3.1629e-01  7.8098e-05  8.2216e-05  1.3998e-05  0:00:02   16
  1985  8.0926e-05  1.4361e-04  1.6857e-04  3.1066e-01  7.7951e-05  8.2022e-05  1.3966e-05  0:00:01   15
  1986  8.0774e-05  1.4357e-04  1.6841e-04  3.0482e-01  7.7802e-05  8.1826e-05  1.3934e-05  0:00:04   14
  1987  8.0619e-05  1.4352e-04  1.6824e-04  2.9940e-01  7.7650e-05  8.1625e-05  1.3901e-05  0:00:03   13
  1988  8.0462e-05  1.4347e-04  1.6806e-04  2.9474e-01  7.7496e-05  8.1396e-05  1.3867e-05  0:00:02   12
  1989  8.0303e-05  1.4340e-04  1.6787e-04  2.9103e-01  7.7340e-05  8.1147e-05  1.3835e-05  0:00:02   11
  1990  8.0142e-05  1.4333e-04  1.6768e-04  2.8717e-01  7.7182e-05  8.0901e-05  1.3804e-05  0:00:01   10
  1991  7.9979e-05  1.4325e-04  1.6747e-04  2.8364e-01  7.7023e-05  8.0681e-05  1.3776e-05  0:00:01    9

  iter  continuity  x-velocity  y-velocity  z-velocity      energy           k       omega     time/iter
  1992  7.9814e-05  1.4316e-04  1.6726e-04  2.8062e-01  7.6862e-05  8.0486e-05  1.3749e-05  0:00:01    8
  1993  7.9648e-05  1.4306e-04  1.6704e-04  2.7792e-01  7.6700e-05  8.0283e-05  1.3723e-05  0:00:02    7
  1994  7.9482e-05  1.4295e-04  1.6681e-04  2.7520e-01  7.6537e-05  8.0072e-05  1.3700e-05  0:00:01    6
  1995  7.9314e-05  1.4284e-04  1.6658e-04  2.7215e-01  7.6373e-05  7.9857e-05  1.3677e-05  0:00:01    5
  1996  7.9146e-05  1.4272e-04  1.6634e-04  2.6829e-01  7.6209e-05  7.9637e-05  1.3655e-05  0:00:01    4
  1997  7.8978e-05  1.4259e-04  1.6609e-04  2.6419e-01  7.6045e-05  7.9420e-05  1.3635e-05  0:00:00    3
  1998  7.8809e-05  1.4245e-04  1.6583e-04  2.5983e-01  7.5881e-05  7.9205e-05  1.3616e-05  0:00:00    2
  1999  7.8642e-05  1.4230e-04  1.6556e-04  2.5529e-01  7.5718e-05  7.8986e-05  1.3595e-05  0:00:00    1
  2000  7.8476e-05  1.4215e-04  1.6529e-04  2.5076e-01  7.5556e-05  7.8770e-05  1.3575e-05  0:00:00    0

> 
adjoint/                parallel/               server/
define/                 parametric-study/       solve/
display/                plot/                   surface/
exit                    preferences/            turbo-workflow/
file/                   print-license-usage     views/
mesh/                   report/

> /file/write-case-data project1
Fast-loading "C:\PROGRA~1\ANSYSI~1\v231\fluent\fluent23.1.0\\addons\afd\lib\hdfio.bin"
Done.

Writing to Engs-30669:"C:\Users\kebl7595\Desktop\CFD\Runs\Viscous\18 degree\project1.cas.h5" in NODE0 mode and compression level 1 ...
       12996 cells,     1 zone  ...
       43722 faces,     8 zones ...
       17864 nodes,     1 zone  ...
  Done.
Done.

Writing to Engs-30669:"C:\Users\kebl7595\Desktop\CFD\Runs\Viscous\18 degree\project1.dat.h5" in NODE0 mode and compression level 1 ...
  Writing results.
Done.

> /file/export/ascii "./surface.dat" wing te () no pressure mach-number quit no

Writing "./surface.dat"...

Writing information to ascii file ...
Done.


> /report/forces/wall-forces y -0.30902 0.95106 0 y "Lift"

> /report/forces/wall-forces y 0.95106 0.30902 0 y "Drag"

> /exit

Posting ANSYS Product Improvement Program performance data 
Done.
Auto-Transcript Stop Time:  10:49:51, 21 May 2024 GMT Daylight Time 
Total Transcript Time: 5 Minute 49 Second.
