Auto-Transcript Start Time:  13:57:35, 21 May 2024 GMT Daylight Time 
Current Directory: "C:\Users\kebl7595\Desktop\CFD\Runs\Viscous\Mach 0.3\18 degree"

              Welcome to ANSYS Fluent 2023 R1

              Copyright 1987-2023 ANSYS, Inc. All Rights Reserved.
              Unauthorized use, distribution or duplication is prohibited.
              This product is subject to U.S. laws governing export and re-export.
              For full Legal Notice, see documentation.

Build Time: Nov 28 2022 09:52:02 EST  Build Id: 10208  
 
Connected License Server List:	1055@ansyslic.eng.ox.ac.uk

*********************************************
Info: Your license enables 4-way parallel execution.
For faster simulations, please start the application with the appropriate parallel options.
*********************************************


     --------------------------------------------------------------
     This is an academic version of ANSYS FLUENT. Usage of this product
     license is limited to the terms and conditions specified in your ANSYS
     license form, additional terms section.
     --------------------------------------------------------------
Host spawning Node 0 on machine "Engs-30669" (win64).

-----------------------------------------------------------------------------------
ID    Hostname    Core  O.S.         PID   Vendor                                 
-----------------------------------------------------------------------------------
n0    Engs-30669  1/32  Windows-x64  9896  13th Gen Intel(R) Core(TM) i9-13900    
host  Engs-30669        Windows-x64  9720  13th Gen Intel(R) Core(TM) i9-13900    

MPI Option Selected: intel
-----------------------------------------------------------------------------------

Cleanup script file is C:\\Users\\kebl7595\\Desktop\\CFD\\Runs\\Viscous\\Mach 0.3\\18 degree\\cleanup-fluent-Engs-30669-9720.bat
QA Service Message :
QA Services Agreement Enabled. This application is included in the scope of an ANSYS QA Services Agreement.
Posting ANSYS Product Improvement Program startup data
Done.

Reading journal file C:/Users/kebl7595/Desktop/CFD/Runs/Viscous/Mach 0.3/18 degree/project1.jou...

> /file/set-batch-options no no no 

> 
define/                 parametric-study/       solve/
display/                plot/                   surface/
exit                    preferences/            switch-to-meshing-mode
file/                   print-license-usage     turbo-workflow/
mesh/                   report/                 views/
parallel/               server/

> /file/import/cgns/mesh  "./project1.cgns"
Engs-30669 has other FLUENT parallel processes running.                       Process affinity not being set.

Importing "./project1.cgns"

Opening library "C:\\PROGRA~1\\ANSYSI~1\\v231\\fluent\\fluent23.1.0\\vki\\win64\\devtools4.4.6.dll"... done.

Read    17864 nodes
   12996 hexahedral cells, zone  1
    9462 quadrilateral wall faces, zone  2.
   33972 quadrilateral interior faces, zone  3.
     282 quadrilateral interface faces, zone  4.
       6 quadrilateral wall faces, zone  5.

Building...
     mesh
     materials,
     interface,
     domains,
     zones,
	default_exterior-1
	interface-default_subface
	default_interior-1
	default_subface
	default
     parallel,
The automatic selection for flux type has changed to Rhie-Chow: momentum based.

Done.


> 
adjoint/                parallel/               server/
define/                 parametric-study/       solve/
display/                plot/                   surface/
exit                    preferences/            turbo-workflow/
file/                   print-license-usage     views/
mesh/                   report/

> /define/models/solver/density-based-implicit yes

> 
adjoint/                parallel/               server/
define/                 parametric-study/       solve/
display/                plot/                   surface/
exit                    preferences/            turbo-workflow/
file/                   print-license-usage     views/
mesh/                   report/

> /define/models/energy? yes yes invalid command [yes]
yes

> /define/models/viscous/kw-standard? yes

> 
adjoint/                parallel/               server/
define/                 parametric-study/       solve/
display/                plot/                   surface/
exit                    preferences/            turbo-workflow/
file/                   print-license-usage     views/
mesh/                   report/

> /define/materials/change-create air air air is a fluid
yes 
Density
ideal-gas no data required.

no no no no no no

> 
adjoint/                parallel/               server/
define/                 parametric-study/       solve/
display/                plot/                   surface/
exit                    preferences/            turbo-workflow/
file/                   print-license-usage     views/
mesh/                   report/

> /mesh/modify-zones/sep-face-zone-angle 2 90 yes

 4332 faces in contiguous region 0
 228 faces in contiguous region 1
 342 faces in contiguous region 2
 4332 faces in contiguous region 3
 228 faces in contiguous region 4
 Separates zone 2 into 5 zone(s).
Updating new zone information...
   created new zone default_subface:010 from default_subface
   created new zone default_subface:009 from default_subface
   created new zone default_subface:008 from default_subface
   created new zone default_subface:007 from default_subface
done.

> 
adjoint/                parallel/               server/
define/                 parametric-study/       solve/
display/                plot/                   surface/
exit                    preferences/            turbo-workflow/
file/                   print-license-usage     views/
mesh/                   report/

> /define/boundary-conditions/zone-name  5   te

> /define/boundary-conditions/zone-name  7 wing

> /define/boundary-conditions/zone-name  2 sym1

> /define/boundary-conditions/zone-name  9 sym2

> 
adjoint/                parallel/               server/
define/                 parametric-study/       solve/
display/                plot/                   surface/
exit                    preferences/            turbo-workflow/
file/                   print-license-usage     views/
mesh/                   report/

> /define/boundary-conditions/zone-name  8 far1

> /define/boundary-conditions/zone-name 10 far2

> 
adjoint/                parallel/               server/
define/                 parametric-study/       solve/
display/                plot/                   surface/
exit                    preferences/            turbo-workflow/
file/                   print-license-usage     views/
mesh/                   report/

> /define/boundary-conditions/zone-type  8 pressure-far-field

> /define/boundary-conditions/zone-type 10 pressure-far-field

> /define/boundary-conditions/zone-type  2 symmetry

> /define/boundary-conditions/zone-type  9 symmetry

> 
adjoint/                parallel/               server/
define/                 parametric-study/       solve/
display/                plot/                   surface/
exit                    preferences/            turbo-workflow/
file/                   print-license-usage     views/
mesh/                   report/

> /define/boundary-conditions/pressure-far-field (far2 far1)
far1 no 0 no 0.3 no 300 yes no 0.95106 no 0.30902 no 0. no yes 5 0.02

> /define/boundary-conditions/pressure-far-field (far2 far1)
far2 no 0 no 0.3 no 300 yes no 0.95106 no 0.30902 no 0. no yes 5 0.02

> 
adjoint/                parallel/               server/
define/                 parametric-study/       solve/
display/                plot/                   surface/
exit                    preferences/            turbo-workflow/
file/                   print-license-usage     views/
mesh/                   report/

> /solve/initialize/compute-defaults/pressure-far-field (far2 far1)
far1

> /solve/initialize/initialize-flow

> 
adjoint/                parallel/               server/
define/                 parametric-study/       solve/
display/                plot/                   surface/
exit                    preferences/            turbo-workflow/
file/                   print-license-usage     views/
mesh/                   report/

> /solve/monitors/residual/convergence-criteria 1.e-9 1.e-9 1.e-9 1.e-9 1.e-9 1.e-9 1.e-9

> /solve/iterate 2000

  iter  continuity  x-velocity  y-velocity  z-velocity      energy           k       omega     time/iter
     1  1.0000e+00  1.0000e+00  1.0000e+00  1.0000e+00  1.0000e+00  1.6764e-01  1.2497e-01  0:00:00 1999
     2  4.9181e-01  4.3705e-01  4.4883e-01  1.0000e+00  4.9627e-01  1.2842e-01  9.9544e-02  0:00:00 1998
     3  2.6720e-01  2.2171e-01  2.2485e-01  8.6757e-01  2.6855e-01  1.0165e-01  8.1954e-02  0:33:17 1997
     4  1.7266e-01  1.5269e-01  1.3526e-01  6.2109e-01  1.7315e-01  8.3122e-02  6.8798e-02  0:26:37 1996
     5  1.2870e-01  1.1338e-01  9.0491e-02  1.0000e+00  1.2926e-01  7.0859e-02  5.9032e-02  0:21:17 1995
     6  1.0700e-01  8.2399e-02  6.4240e-02  1.2359e+00  1.0793e-01  6.1523e-02  5.1886e-02  0:17:01 1994
     7  9.3910e-02  6.1697e-02  4.8071e-02  1.1217e+00  9.5136e-02  5.3978e-02  4.6287e-02  0:13:36 1993
     8  8.3459e-02  4.8112e-02  3.7951e-02  9.8633e-01  8.4786e-02  4.7818e-02  4.1593e-02  0:10:53 1992
     9  7.4790e-02  3.9235e-02  3.1376e-02  9.1396e-01  7.6069e-02  4.2712e-02  3.7596e-02  0:08:42 1991
    10  6.7621e-02  3.3408e-02  2.6854e-02  8.5768e-01  6.8759e-02  3.8442e-02  3.4173e-02  0:06:57 1990
    11  6.1973e-02  2.9705e-02  2.3541e-02  8.8245e-01  6.2930e-02  3.4893e-02  3.1238e-02  0:05:34 1989

  iter  continuity  x-velocity  y-velocity  z-velocity      energy           k       omega     time/iter
    12  5.7762e-02  2.7559e-02  2.1022e-02  1.0202e+00  5.8533e-02  3.1929e-02  2.8711e-02  0:11:04 1988
    13  5.4817e-02  2.6558e-02  1.9134e-02  1.3162e+00  5.5415e-02  2.9401e-02  2.6546e-02  0:08:51 1987
    14  5.3009e-02  2.6335e-02  1.7853e-02  1.7769e+00  5.3451e-02  2.7225e-02  2.4657e-02  0:07:05 1986
    15  5.2140e-02  2.6628e-02  1.7044e-02  2.4059e+00  5.2446e-02  2.5329e-02  2.2986e-02  0:05:40 1985
    16  5.2012e-02  2.7324e-02  1.6632e-02  3.1894e+00  5.2196e-02  2.3674e-02  2.1496e-02  0:04:32 1984
    17  5.2483e-02  2.8484e-02  1.6506e-02  4.1164e+00  5.2556e-02  2.2238e-02  2.0179e-02  0:10:14 1983
    18  5.3367e-02  2.9860e-02  1.6579e-02  5.1632e+00  5.3333e-02  2.0954e-02  1.9002e-02  0:08:11 1982
    19  5.4524e-02  3.1320e-02  1.6803e-02  6.2983e+00  5.4380e-02  1.9815e-02  1.7937e-02  0:06:32 1981
    20  5.5827e-02  3.2744e-02  1.7079e-02  7.4786e+00  5.5566e-02  1.8813e-02  1.6979e-02  0:05:14 1980
    21  5.7131e-02  3.4020e-02  1.7387e-02  8.6515e+00  5.6741e-02  1.7909e-02  1.6116e-02  0:04:11 1979
    22  5.8332e-02  3.5143e-02  1.7758e-02  9.7576e+00  5.7802e-02  1.7083e-02  1.5332e-02  0:03:21 1978

  iter  continuity  x-velocity  y-velocity  z-velocity      energy           k       omega     time/iter
    23  5.9325e-02  3.6015e-02  1.8208e-02  1.0738e+01  5.8642e-02  1.6327e-02  1.4612e-02  0:02:40 1977
    24  6.0037e-02  3.6712e-02  1.8695e-02  1.1540e+01  5.9189e-02  1.5634e-02  1.3959e-02  0:02:08 1976
    25  6.0417e-02  3.7196e-02  1.9222e-02  1.2104e+01  5.9393e-02  1.4995e-02  1.3363e-02  0:08:18 1975
    26  6.0411e-02  3.7284e-02  1.9863e-02  1.2392e+01  5.9203e-02  1.4407e-02  1.2809e-02  0:06:38 1974
    27  6.0014e-02  3.7434e-02  2.0425e-02  1.2387e+01  5.8618e-02  1.3868e-02  1.2296e-02  0:05:18 1973
    28  5.9248e-02  3.7535e-02  2.1015e-02  1.2085e+01  5.7664e-02  1.3371e-02  1.1828e-02  0:04:14 1972
    29  5.8126e-02  3.7603e-02  2.1615e-02  1.1491e+01  5.6355e-02  1.2909e-02  1.1386e-02  0:03:23 1971
    30  5.6663e-02  3.7684e-02  2.2267e-02  1.0689e+01  5.4712e-02  1.2479e-02  1.0968e-02  0:02:43 1970
    31  5.4902e-02  3.7659e-02  2.3052e-02  9.7545e+00  5.2780e-02  1.2079e-02  1.0579e-02  0:02:10 1969
    32  5.2910e-02  3.7781e-02  2.3979e-02  8.8117e+00  5.0629e-02  1.1709e-02  1.0207e-02  0:01:44 1968
    33  5.0696e-02  3.8074e-02  2.5033e-02  7.9721e+00  4.8270e-02  1.1362e-02  9.8542e-03  0:01:23 1967

  iter  continuity  x-velocity  y-velocity  z-velocity      energy           k       omega     time/iter
    34  4.8289e-02  3.8472e-02  2.6285e-02  7.4529e+00  4.5733e-02  1.1038e-02  9.5157e-03  0:07:40 1966
    35  4.5737e-02  3.8702e-02  2.7810e-02  7.3541e+00  4.3066e-02  1.0741e-02  9.1832e-03  0:06:08 1965
    36  4.3145e-02  3.8815e-02  2.9426e-02  7.6693e+00  4.0378e-02  1.0468e-02  8.8786e-03  0:04:54 1964
    37  4.0533e-02  3.8417e-02  3.0959e-02  8.3048e+00  3.7683e-02  1.0215e-02  8.5964e-03  0:03:55 1963
    38  3.7943e-02  3.7896e-02  3.2461e-02  9.1031e+00  3.5022e-02  9.9822e-03  8.3264e-03  0:03:08 1962
    39  3.5396e-02  3.7284e-02  3.3866e-02  9.9301e+00  3.2411e-02  9.7707e-03  8.0564e-03  0:02:30 1961
    40  3.2929e-02  3.6735e-02  3.5135e-02  1.0686e+01  2.9884e-02  9.5777e-03  7.8164e-03  0:02:00 1960
    41  3.0576e-02  3.6176e-02  3.6333e-02  1.1323e+01  2.7478e-02  9.4101e-03  7.5944e-03  0:01:36 1959
    42  2.8347e-02  3.5639e-02  3.7406e-02  1.1806e+01  2.5199e-02  9.2635e-03  7.3855e-03  0:01:17 1958
    43  2.6253e-02  3.5055e-02  3.8387e-02  1.2121e+01  2.3055e-02  9.1295e-03  7.1837e-03  0:07:33 1957
    44  2.4290e-02  3.4472e-02  3.9258e-02  1.2280e+01  2.1043e-02  9.0032e-03  6.9914e-03  0:06:02 1956

  iter  continuity  x-velocity  y-velocity  z-velocity      energy           k       omega     time/iter
    45  2.2470e-02  3.3953e-02  3.9975e-02  1.2286e+01  1.9174e-02  8.9015e-03  6.8070e-03  0:04:50 1955
    46  2.0805e-02  3.3522e-02  4.0545e-02  1.2119e+01  1.7459e-02  8.8209e-03  6.6231e-03  0:03:51 1954
    47  1.9288e-02  3.3164e-02  4.0968e-02  1.1796e+01  1.5897e-02  8.7469e-03  6.4480e-03  0:03:05 1953
    48  1.7918e-02  3.3129e-02  4.1205e-02  1.1374e+01  1.4493e-02  8.6755e-03  6.2688e-03  0:02:28 1952
    49  1.6733e-02  3.3081e-02  4.1375e-02  1.0899e+01  1.3295e-02  8.6092e-03  6.1032e-03  0:01:58 1951
    50  1.5705e-02  3.2948e-02  4.1466e-02  1.0398e+01  1.2274e-02  8.5550e-03  5.9380e-03  0:01:35 1950
    51  1.4822e-02  3.2840e-02  4.1472e-02  9.8756e+00  1.1425e-02  8.5151e-03  5.7767e-03  0:01:16 1949
    52  1.4076e-02  3.2807e-02  4.1398e-02  9.3425e+00  1.0745e-02  8.4876e-03  5.6145e-03  0:07:30 1948
    53  1.3452e-02  3.2870e-02  4.1241e-02  8.8045e+00  1.0225e-02  8.4662e-03  5.4400e-03  0:06:00 1947
    54  1.2937e-02  3.3041e-02  4.1008e-02  8.2657e+00  9.8538e-03  8.4570e-03  5.2597e-03  0:04:48 1946
    55  1.2530e-02  3.3312e-02  4.0701e-02  7.7264e+00  9.6280e-03  8.4580e-03  5.0803e-03  0:03:50 1945

  iter  continuity  x-velocity  y-velocity  z-velocity      energy           k       omega     time/iter
    56  1.2215e-02  3.3683e-02  4.0326e-02  7.2149e+00  9.5286e-03  8.4681e-03  4.9228e-03  0:03:04 1944
    57  1.1981e-02  3.4169e-02  3.9888e-02  6.8639e+00  9.5346e-03  8.5029e-03  4.7757e-03  0:02:27 1943
    58  1.1801e-02  3.4713e-02  3.9424e-02  6.6727e+00  9.6129e-03  8.5559e-03  4.6332e-03  0:01:58 1942
    59  1.1668e-02  3.5272e-02  3.8922e-02  6.6419e+00  9.7465e-03  8.6706e-03  4.5101e-03  0:01:34 1941
    60  1.1575e-02  3.5889e-02  3.8377e-02  6.8293e+00  9.9238e-03  8.8316e-03  4.4304e-03  0:01:15 1940
    61  1.1520e-02  3.6542e-02  3.7804e-02  7.1937e+00  1.0136e-02  8.9840e-03  4.3567e-03  0:07:28 1939
    62  1.1513e-02  3.7249e-02  3.7195e-02  7.7018e+00  1.0386e-02  9.1552e-03  4.2751e-03  0:05:58 1938
    63  1.1547e-02  3.8003e-02  3.6543e-02  8.2907e+00  1.0665e-02  9.3734e-03  4.2124e-03  0:04:46 1937
    64  1.1622e-02  3.8781e-02  3.5853e-02  8.9254e+00  1.0967e-02  9.5873e-03  4.1402e-03  0:03:49 1936
    65  1.1708e-02  3.9770e-02  3.5007e-02  9.5622e+00  1.1267e-02  9.7892e-03  4.0722e-03  0:03:03 1935
    66  1.1837e-02  4.0785e-02  3.4161e-02  1.0184e+01  1.1592e-02  9.9931e-03  4.0123e-03  0:02:26 1934

  iter  continuity  x-velocity  y-velocity  z-velocity      energy           k       omega     time/iter
    67  1.2011e-02  4.1512e-02  3.3392e-02  1.0693e+01  1.1932e-02  1.0183e-02  3.9724e-03  0:01:57 1933
    68  1.2204e-02  4.2080e-02  3.2622e-02  1.1075e+01  1.2263e-02  1.0404e-02  3.9445e-03  0:01:34 1932
    69  1.2408e-02  4.2564e-02  3.1818e-02  1.1329e+01  1.2576e-02  1.0623e-02  3.9214e-03  0:07:41 1931
    70  1.2609e-02  4.2967e-02  3.0975e-02  1.1415e+01  1.2859e-02  1.0854e-02  3.9081e-03  0:06:09 1930
    71  1.2792e-02  4.3277e-02  3.0098e-02  1.1390e+01  1.3102e-02  1.1092e-02  3.8918e-03  0:04:55 1929
    72  1.2927e-02  4.3427e-02  2.9179e-02  1.1220e+01  1.3277e-02  1.1345e-02  3.8784e-03  0:03:56 1928
    73  1.3033e-02  4.3535e-02  2.8246e-02  1.0923e+01  1.3405e-02  1.1562e-02  3.8624e-03  0:03:08 1927
    74  1.3084e-02  4.3458e-02  2.7341e-02  1.0536e+01  1.3465e-02  1.1780e-02  3.8394e-03  0:02:31 1926
    75  1.3061e-02  4.3174e-02  2.6344e-02  1.0081e+01  1.3435e-02  1.2028e-02  3.8247e-03  0:02:00 1925
    76  1.2966e-02  4.2777e-02  2.5359e-02  9.5635e+00  1.3321e-02  1.2276e-02  3.8060e-03  0:01:36 1924
    77  1.2806e-02  4.2280e-02  2.4491e-02  8.9971e+00  1.3132e-02  1.2518e-02  3.7883e-03  0:07:42 1923

  iter  continuity  x-velocity  y-velocity  z-velocity      energy           k       omega     time/iter
    78  1.2551e-02  4.1644e-02  2.3517e-02  8.4364e+00  1.2843e-02  1.2746e-02  3.7669e-03  0:06:09 1922
    79  1.2200e-02  4.0689e-02  2.2517e-02  7.9250e+00  1.2453e-02  1.2976e-02  3.7310e-03  0:04:55 1921
    80  1.1761e-02  3.9588e-02  2.1484e-02  7.4604e+00  1.1973e-02  1.3219e-02  3.6910e-03  0:03:56 1920
    81  1.1242e-02  3.8394e-02  2.0405e-02  7.0501e+00  1.1410e-02  1.3461e-02  3.6698e-03  0:03:09 1919
    82  1.0638e-02  3.7124e-02  1.9275e-02  6.7365e+00  1.0761e-02  1.3689e-02  3.6310e-03  0:02:31 1918
    83  9.9766e-03  3.5839e-02  1.8173e-02  6.5631e+00  1.0055e-02  1.3901e-02  3.5854e-03  0:02:01 1917
    84  9.2673e-03  3.4415e-02  1.7126e-02  6.4852e+00  9.3021e-03  1.4133e-02  3.5372e-03  0:01:36 1916
    85  8.5262e-03  3.2967e-02  1.6113e-02  6.5262e+00  8.5215e-03  1.4403e-02  3.4894e-03  0:07:40 1915
    86  7.7279e-03  3.1590e-02  1.5193e-02  6.6707e+00  7.6968e-03  1.4689e-02  3.4529e-03  0:06:08 1914
    87  7.0537e-03  3.0474e-02  1.4469e-02  6.8729e+00  6.9980e-03  1.4929e-02  3.3947e-03  0:04:54 1913
    88  6.4481e-03  2.9173e-02  1.3779e-02  7.1236e+00  6.3709e-03  1.5096e-02  3.3456e-03  0:03:55 1912

  iter  continuity  x-velocity  y-velocity  z-velocity      energy           k       omega     time/iter
    89  5.9889e-03  2.7984e-02  1.3103e-02  7.3565e+00  5.9017e-03  1.5300e-02  3.2877e-03  0:03:08 1911
    90  5.7053e-03  2.7143e-02  1.2384e-02  7.5859e+00  5.6305e-03  1.5604e-02  3.2527e-03  0:02:30 1910
    91  5.7119e-03  2.6424e-02  1.1947e-02  7.7978e+00  5.6634e-03  1.5934e-02  3.2205e-03  0:02:00 1909
    92  5.9960e-03  2.5926e-02  1.1671e-02  7.9815e+00  5.9739e-03  1.6193e-02  3.1911e-03  0:01:36 1908
    93  6.5068e-03  2.5644e-02  1.1512e-02  8.1419e+00  6.5039e-03  1.6342e-02  3.1704e-03  0:01:17 1907
    94  7.1593e-03  2.5529e-02  1.1415e-02  8.2739e+00  7.1643e-03  1.6498e-02  3.1511e-03  0:07:23 1906
    95  7.8889e-03  2.5570e-02  1.1344e-02  8.3661e+00  7.8911e-03  1.6723e-02  3.1402e-03  0:05:54 1905
    96  8.6552e-03  2.5798e-02  1.1304e-02  8.4017e+00  8.6463e-03  1.7015e-02  3.1331e-03  0:04:43 1904
    97  9.4032e-03  2.5785e-02  1.1306e-02  8.3515e+00  9.3750e-03  1.7389e-02  3.1037e-03  0:03:46 1903
    98  1.0087e-02  2.5867e-02  1.1280e-02  8.2757e+00  1.0033e-02  1.7742e-02  3.0741e-03  0:03:01 1902
    99  1.0744e-02  2.6145e-02  1.1322e-02  8.1058e+00  1.0657e-02  1.7929e-02  3.0423e-03  0:02:25 1901

  iter  continuity  x-velocity  y-velocity  z-velocity      energy           k       omega     time/iter
   100  1.1325e-02  2.6330e-02  1.1333e-02  7.8945e+00  1.1198e-02  1.7979e-02  3.0411e-03  0:01:56 1900
   101  1.1819e-02  2.6412e-02  1.1315e-02  7.6609e+00  1.1643e-02  1.8060e-02  3.0334e-03  0:01:32 1899
   102  1.2231e-02  2.6443e-02  1.1310e-02  7.4169e+00  1.1999e-02  1.8142e-02  3.0035e-03  0:07:34 1898
   103  1.2558e-02  2.6406e-02  1.1317e-02  7.1546e+00  1.2261e-02  1.8300e-02  2.9820e-03  0:06:03 1897
   104  1.2798e-02  2.6285e-02  1.1320e-02  6.8987e+00  1.2431e-02  1.8530e-02  2.9611e-03  0:04:50 1896
   105  1.2951e-02  2.6059e-02  1.1314e-02  6.6719e+00  1.2509e-02  1.8711e-02  2.9391e-03  0:03:52 1895
   106  1.3018e-02  2.5714e-02  1.1299e-02  6.4810e+00  1.2497e-02  1.8920e-02  2.9139e-03  0:03:05 1894
   107  1.3006e-02  2.5246e-02  1.1291e-02  6.3297e+00  1.2403e-02  1.9011e-02  2.8901e-03  0:02:28 1893
   108  1.2919e-02  2.4659e-02  1.1289e-02  6.2043e+00  1.2231e-02  1.9032e-02  2.8670e-03  0:01:59 1892
   109  1.2767e-02  2.4000e-02  1.1276e-02  6.1040e+00  1.1995e-02  1.8985e-02  2.8520e-03  0:01:35 1891
   110  1.2553e-02  2.3231e-02  1.1272e-02  6.0117e+00  1.1698e-02  1.8891e-02  2.8341e-03  0:07:34 1890

  iter  continuity  x-velocity  y-velocity  z-velocity      energy           k       omega     time/iter
   111  1.2280e-02  2.2457e-02  1.1281e-02  5.9284e+00  1.1345e-02  1.8871e-02  2.8135e-03  0:06:03 1889
   112  1.1967e-02  2.1681e-02  1.1335e-02  5.8358e+00  1.0956e-02  1.8875e-02  2.7990e-03  0:04:50 1888
   113  1.1610e-02  2.0845e-02  1.1393e-02  5.7443e+00  1.0529e-02  1.9003e-02  2.7829e-03  0:03:52 1887
   114  1.1220e-02  2.0004e-02  1.1450e-02  5.6530e+00  1.0078e-02  1.9108e-02  2.7411e-03  0:03:05 1886
   115  1.0808e-02  1.9192e-02  1.1514e-02  5.5669e+00  9.6152e-03  1.9191e-02  2.7043e-03  0:02:28 1885
   116  1.0394e-02  1.8488e-02  1.1599e-02  5.4709e+00  9.1622e-03  1.9202e-02  2.6661e-03  0:01:59 1884
   117  9.9836e-03  1.7890e-02  1.1705e-02  5.3733e+00  8.7291e-03  1.9021e-02  2.6305e-03  0:01:35 1883
   118  9.5860e-03  1.7407e-02  1.1824e-02  5.2760e+00  8.3259e-03  1.8842e-02  2.6026e-03  0:01:16 1882
   119  9.2137e-03  1.7081e-02  1.1955e-02  5.1735e+00  7.9672e-03  1.8657e-02  2.5645e-03  0:07:17 1881
   120  8.8651e-03  1.6666e-02  1.2058e-02  5.0734e+00  7.6514e-03  1.8455e-02  2.5243e-03  0:05:49 1880
   121  8.5517e-03  1.6139e-02  1.2125e-02  4.9706e+00  7.3908e-03  1.8221e-02  2.4837e-03  0:04:39 1879

  iter  continuity  x-velocity  y-velocity  z-velocity      energy           k       omega     time/iter
   122  8.2895e-03  1.5506e-02  1.2163e-02  4.8663e+00  7.2019e-03  1.8169e-02  2.4484e-03  0:03:43 1878
   123  8.1446e-03  1.5522e-02  1.2264e-02  4.7538e+00  7.1483e-03  1.8110e-02  2.4192e-03  0:02:59 1877
   124  7.8706e-03  1.6253e-02  1.1602e-02  4.6287e+00  6.9767e-03  1.7888e-02  2.3701e-03  0:02:23 1876
   125  7.7538e-03  1.7897e-02  1.1679e-02  4.4933e+00  6.9993e-03  1.7722e-02  2.3305e-03  0:01:54 1875
   126  7.7771e-03  1.9267e-02  1.1972e-02  4.3416e+00  7.1671e-03  1.7541e-02  2.2926e-03  0:01:31 1874
   127  7.7962e-03  2.0173e-02  1.2196e-02  4.1825e+00  7.3160e-03  1.7313e-02  2.2419e-03  0:07:28 1873
   128  7.8011e-03  2.0850e-02  1.2307e-02  4.0266e+00  7.4361e-03  1.6911e-02  2.1876e-03  0:05:58 1872
   129  7.8177e-03  2.1498e-02  1.2344e-02  3.8890e+00  7.5553e-03  1.6547e-02  2.1423e-03  0:04:46 1871
   130  7.7144e-03  2.1322e-02  1.2342e-02  3.7620e+00  7.5542e-03  1.6174e-02  2.1017e-03  0:03:49 1870
   131  7.8639e-03  2.2462e-02  1.2348e-02  3.6473e+00  7.7706e-03  1.5798e-02  2.0489e-03  0:03:03 1869
   132  8.0723e-03  2.3487e-02  1.2476e-02  3.5557e+00  8.0176e-03  1.5429e-02  2.0134e-03  0:02:26 1868

  iter  continuity  x-velocity  y-velocity  z-velocity      energy           k       omega     time/iter
   133  8.3078e-03  2.4362e-02  1.2697e-02  3.5015e+00  8.2676e-03  1.5136e-02  1.9832e-03  0:01:57 1867
   134  8.5720e-03  2.5185e-02  1.2961e-02  3.4970e+00  8.5228e-03  1.4841e-02  1.9380e-03  0:01:34 1866
   135  8.8645e-03  2.5990e-02  1.3254e-02  3.5368e+00  8.7834e-03  1.4571e-02  1.9198e-03  0:07:28 1865
   136  9.1840e-03  2.6776e-02  1.3570e-02  3.5857e+00  9.0488e-03  1.4153e-02  1.9196e-03  0:05:58 1864
   137  9.5304e-03  2.7543e-02  1.3919e-02  3.6690e+00  9.3195e-03  1.3698e-02  1.9026e-03  0:04:46 1863
   138  9.8845e-03  2.8220e-02  1.4294e-02  3.7946e+00  9.5781e-03  1.3090e-02  1.8860e-03  0:03:49 1862
   139  1.0252e-02  2.8912e-02  1.4715e-02  3.9525e+00  9.8329e-03  1.2555e-02  1.8783e-03  0:03:03 1861
   140  1.0571e-02  2.9447e-02  1.4995e-02  4.1601e+00  1.0025e-02  1.2168e-02  1.8697e-03  0:02:26 1860
   141  1.0872e-02  2.9722e-02  1.5146e-02  4.4001e+00  1.0189e-02  1.1847e-02  1.8649e-03  0:01:57 1859
   142  1.1194e-02  2.9921e-02  1.5434e-02  4.6554e+00  1.0361e-02  1.1500e-02  1.8573e-03  0:01:34 1858
   143  1.1501e-02  2.9895e-02  1.5672e-02  4.9066e+00  1.0505e-02  1.1194e-02  1.8435e-03  0:07:26 1857

  iter  continuity  x-velocity  y-velocity  z-velocity      energy           k       omega     time/iter
   144  1.1805e-02  2.9754e-02  1.5908e-02  5.1378e+00  1.0637e-02  1.0874e-02  1.8311e-03  0:05:57 1856
   145  1.2103e-02  2.9507e-02  1.6154e-02  5.3369e+00  1.0750e-02  1.0670e-02  1.8082e-03  0:04:45 1855
   146  1.2398e-02  2.9253e-02  1.6403e-02  5.5019e+00  1.0853e-02  1.0488e-02  1.7734e-03  0:03:48 1854
   147  1.2679e-02  2.9012e-02  1.6644e-02  5.6504e+00  1.0938e-02  1.0329e-02  1.7435e-03  0:03:02 1853
   148  1.2988e-02  2.9121e-02  1.6944e-02  5.7897e+00  1.1056e-02  1.0059e-02  1.7149e-03  0:02:26 1852
   149  1.3359e-02  2.9390e-02  1.7554e-02  5.9141e+00  1.1254e-02  9.6986e-03  1.6885e-03  0:01:57 1851
   150  1.3793e-02  3.0557e-02  1.8061e-02  6.0197e+00  1.1516e-02  9.2855e-03  1.6625e-03  0:01:33 1850
   151  1.4247e-02  3.1506e-02  1.8665e-02  6.1082e+00  1.1786e-02  8.9183e-03  1.6151e-03  0:01:15 1849
   152  1.4686e-02  3.2002e-02  1.9678e-02  6.1558e+00  1.2072e-02  8.5451e-03  1.5762e-03  0:07:09 1848
   153  1.4811e-02  2.9662e-02  2.0002e-02  6.1786e+00  1.2023e-02  8.1906e-03  1.5314e-03  0:05:43 1847
   154  1.4652e-02  2.6963e-02  1.9351e-02  6.1781e+00  1.1686e-02  7.8376e-03  1.4860e-03  0:04:34 1846

  iter  continuity  x-velocity  y-velocity  z-velocity      energy           k       omega     time/iter
   155  1.4784e-02  2.8773e-02  1.8301e-02  6.1699e+00  1.1759e-02  7.5062e-03  1.4498e-03  0:03:39 1845
   156  1.4833e-02  2.9114e-02  1.8049e-02  6.1477e+00  1.1763e-02  7.2105e-03  1.4101e-03  0:02:55 1844
   157  1.4590e-02  2.7330e-02  1.8446e-02  6.0960e+00  1.1444e-02  6.8844e-03  1.3739e-03  0:02:20 1843
   158  1.4229e-02  2.5919e-02  1.8943e-02  6.0037e+00  1.1010e-02  6.5596e-03  1.3407e-03  0:01:52 1842
   159  1.3871e-02  2.5203e-02  1.9203e-02  5.8683e+00  1.0621e-02  6.3118e-03  1.3026e-03  0:01:30 1841
   160  1.3512e-02  2.4185e-02  1.9026e-02  5.7080e+00  1.0264e-02  6.1343e-03  1.2705e-03  0:07:20 1840
   161  1.3124e-02  2.3593e-02  1.8869e-02  5.5358e+00  9.9010e-03  6.0408e-03  1.2354e-03  0:05:52 1839
   162  1.2703e-02  2.3209e-02  1.9004e-02  5.3292e+00  9.5281e-03  5.9566e-03  1.2016e-03  0:04:41 1838
   163  1.2255e-02  2.2581e-02  1.9020e-02  5.1114e+00  9.1472e-03  5.8108e-03  1.1752e-03  0:03:45 1837
   164  1.1706e-02  2.2438e-02  1.8824e-02  4.8710e+00  8.6761e-03  5.6863e-03  1.1544e-03  0:03:00 1836
   165  1.1114e-02  2.2418e-02  1.8734e-02  4.6219e+00  8.1739e-03  5.5721e-03  1.1370e-03  0:02:24 1835

  iter  continuity  x-velocity  y-velocity  z-velocity      energy           k       omega     time/iter
   166  1.0463e-02  2.2423e-02  1.8735e-02  4.3720e+00  7.6662e-03  5.4659e-03  1.1233e-03  0:01:55 1834
   167  9.7677e-03  2.2389e-02  1.8761e-02  4.1356e+00  7.1616e-03  5.3775e-03  1.1159e-03  0:01:32 1833
   168  9.0611e-03  2.2336e-02  1.8783e-02  3.9104e+00  6.6835e-03  5.3313e-03  1.1201e-03  0:01:13 1832
   169  8.3723e-03  2.2229e-02  1.8809e-02  3.6889e+00  6.2505e-03  5.2590e-03  1.1250e-03  0:07:05 1831
   170  7.7181e-03  2.2093e-02  1.8836e-02  3.4772e+00  5.8726e-03  5.1911e-03  1.1349e-03  0:05:40 1830
   171  7.1038e-03  2.1915e-02  1.8842e-02  3.2695e+00  5.5486e-03  5.1426e-03  1.1439e-03  0:04:32 1829
   172  6.5478e-03  2.1813e-02  1.8777e-02  3.0696e+00  5.2917e-03  5.1064e-03  1.1572e-03  0:03:37 1828
   173  6.0424e-03  2.1685e-02  1.8610e-02  2.8759e+00  5.0862e-03  5.0863e-03  1.1690e-03  0:02:54 1827
   174  5.5858e-03  2.1451e-02  1.8326e-02  2.6893e+00  4.9177e-03  5.0920e-03  1.1837e-03  0:02:19 1826
   175  5.1822e-03  2.1097e-02  1.7922e-02  2.5109e+00  4.7821e-03  5.1100e-03  1.1949e-03  0:01:51 1825
   176  4.8383e-03  2.0662e-02  1.7411e-02  2.3458e+00  4.6770e-03  5.1476e-03  1.2059e-03  0:07:34 1824

  iter  continuity  x-velocity  y-velocity  z-velocity      energy           k       omega     time/iter
   177  4.5633e-03  2.0161e-02  1.6816e-02  2.1975e+00  4.6018e-03  5.1846e-03  1.2199e-03  0:06:03 1823
   178  4.3723e-03  1.9632e-02  1.6137e-02  2.0716e+00  4.5608e-03  5.2348e-03  1.2388e-03  0:04:50 1822
   179  4.2509e-03  1.9068e-02  1.5378e-02  1.9728e+00  4.5378e-03  5.3099e-03  1.2657e-03  0:03:52 1821
   180  4.1898e-03  1.8480e-02  1.4556e-02  1.9030e+00  4.5256e-03  5.3844e-03  1.2863e-03  0:03:05 1820
   181  4.1731e-03  1.7870e-02  1.3684e-02  1.8668e+00  4.5158e-03  5.4832e-03  1.3103e-03  0:02:28 1819
   182  4.1805e-03  1.7246e-02  1.2767e-02  1.8570e+00  4.4981e-03  5.5917e-03  1.3390e-03  0:01:59 1818
   183  4.2025e-03  1.6613e-02  1.1836e-02  1.8707e+00  4.4736e-03  5.7001e-03  1.3547e-03  0:01:35 1817
   184  4.2296e-03  1.5972e-02  1.0912e-02  1.9011e+00  4.4410e-03  5.8122e-03  1.3688e-03  0:07:19 1816
   185  4.2496e-03  1.5341e-02  9.9994e-03  1.9440e+00  4.3966e-03  5.9272e-03  1.3798e-03  0:05:51 1815
   186  4.2543e-03  1.4729e-02  9.1088e-03  1.9940e+00  4.3387e-03  6.0599e-03  1.3977e-03  0:04:41 1814
   187  4.2399e-03  1.4143e-02  8.2547e-03  2.0471e+00  4.2681e-03  6.1890e-03  1.4118e-03  0:03:44 1813

  iter  continuity  x-velocity  y-velocity  z-velocity      energy           k       omega     time/iter
   188  4.2036e-03  1.3569e-02  7.4431e-03  2.0994e+00  4.1856e-03  6.3051e-03  1.4292e-03  0:02:59 1812
   189  4.1485e-03  1.3025e-02  6.6995e-03  2.1442e+00  4.0964e-03  6.4173e-03  1.4356e-03  0:02:23 1811
   190  4.0784e-03  1.2502e-02  6.0312e-03  2.1763e+00  4.0028e-03  6.5313e-03  1.4362e-03  0:01:55 1810
   191  3.9966e-03  1.1994e-02  5.4434e-03  2.1957e+00  3.9071e-03  6.6504e-03  1.4360e-03  0:07:34 1809
   192  3.9082e-03  1.1504e-02  4.9370e-03  2.2064e+00  3.8126e-03  6.7637e-03  1.4396e-03  0:06:03 1808
   193  3.8191e-03  1.1039e-02  4.5091e-03  2.2147e+00  3.7237e-03  6.8873e-03  1.4393e-03  0:04:50 1807
   194  3.7356e-03  1.0598e-02  4.1495e-03  2.2230e+00  3.6452e-03  6.9986e-03  1.4415e-03  0:03:52 1806
   195  3.6625e-03  1.0180e-02  3.8550e-03  2.2375e+00  3.5796e-03  7.0642e-03  1.4336e-03  0:03:05 1805
   196  3.6069e-03  9.7918e-03  3.6201e-03  2.2482e+00  3.5322e-03  7.0998e-03  1.4249e-03  0:02:28 1804
   197  3.5722e-03  9.4290e-03  3.4414e-03  2.2561e+00  3.5044e-03  7.0960e-03  1.4129e-03  0:01:58 1803
   198  3.5622e-03  9.0688e-03  3.3304e-03  2.2661e+00  3.4981e-03  7.0954e-03  1.4041e-03  0:01:35 1802

  iter  continuity  x-velocity  y-velocity  z-velocity      energy           k       omega     time/iter
   199  3.5771e-03  8.7589e-03  3.2307e-03  2.2696e+00  3.5134e-03  7.0977e-03  1.3958e-03  0:07:16 1801
   200  3.6143e-03  8.5001e-03  3.1450e-03  2.2666e+00  3.5479e-03  7.0899e-03  1.3764e-03  0:05:49 1800
   201  3.6715e-03  8.2905e-03  3.0821e-03  2.2538e+00  3.6002e-03  7.0678e-03  1.3607e-03  0:04:39 1799
   202  3.7445e-03  8.1235e-03  3.0424e-03  2.2301e+00  3.6664e-03  7.0453e-03  1.3454e-03  0:03:43 1798
   203  3.8271e-03  7.9961e-03  3.0248e-03  2.1981e+00  3.7400e-03  7.0087e-03  1.3335e-03  0:02:58 1797
   204  3.9152e-03  7.9111e-03  3.0287e-03  2.1570e+00  3.8188e-03  6.9498e-03  1.3261e-03  0:02:22 1796
   205  3.9953e-03  7.7621e-03  3.0214e-03  2.1068e+00  3.8901e-03  6.8698e-03  1.3171e-03  0:01:54 1795
   206  4.0719e-03  7.6205e-03  3.0430e-03  2.0508e+00  3.9592e-03  6.7970e-03  1.2939e-03  0:01:31 1794
   207  4.1419e-03  7.5209e-03  3.0892e-03  1.9949e+00  4.0224e-03  6.7113e-03  1.2750e-03  0:07:11 1793
   208  4.1997e-03  7.4290e-03  3.1536e-03  1.9452e+00  4.0743e-03  6.6255e-03  1.2500e-03  0:05:45 1792
   209  4.2492e-03  7.3564e-03  3.2275e-03  1.9044e+00  4.1191e-03  6.5229e-03  1.2328e-03  0:04:36 1791

  iter  continuity  x-velocity  y-velocity  z-velocity      energy           k       omega     time/iter
   210  4.2910e-03  7.3031e-03  3.3063e-03  1.8771e+00  4.1571e-03  6.4036e-03  1.2167e-03  0:03:41 1790
   211  4.3235e-03  7.2608e-03  3.3887e-03  1.8644e+00  4.1863e-03  6.2964e-03  1.2016e-03  0:02:56 1789
   212  4.3446e-03  7.2208e-03  3.4748e-03  1.8680e+00  4.2043e-03  6.1982e-03  1.1899e-03  0:02:21 1788
   213  4.3538e-03  7.1768e-03  3.5630e-03  1.8846e+00  4.2102e-03  6.1041e-03  1.1725e-03  0:01:53 1787
   214  4.3512e-03  7.1241e-03  3.6514e-03  1.9114e+00  4.2037e-03  5.9966e-03  1.1538e-03  0:01:30 1786
   215  4.3368e-03  7.0575e-03  3.7369e-03  1.9451e+00  4.1847e-03  5.8776e-03  1.1365e-03  0:07:09 1785
   216  4.3126e-03  6.9754e-03  3.8173e-03  1.9835e+00  4.1550e-03  5.7582e-03  1.1189e-03  0:05:43 1784
   217  4.2718e-03  6.8767e-03  3.8906e-03  2.0247e+00  4.1076e-03  5.6220e-03  1.0980e-03  0:04:34 1783
   218  4.2138e-03  6.7599e-03  3.9554e-03  2.0659e+00  4.0419e-03  5.4758e-03  1.0721e-03  0:03:39 1782
   219  4.1509e-03  6.6257e-03  4.0114e-03  2.1062e+00  3.9704e-03  5.3300e-03  1.0531e-03  0:02:55 1781
   220  4.0762e-03  6.4732e-03  4.0582e-03  2.1470e+00  3.8865e-03  5.2045e-03  1.0332e-03  0:02:20 1780

  iter  continuity  x-velocity  y-velocity  z-velocity      energy           k       omega     time/iter
   221  3.9881e-03  6.3056e-03  4.0958e-03  2.1866e+00  3.7885e-03  5.0642e-03  1.0122e-03  0:01:52 1779
   222  3.8900e-03  6.1277e-03  4.1235e-03  2.2195e+00  3.6803e-03  4.9224e-03  9.9259e-04  0:07:25 1778
   223  3.7797e-03  5.9431e-03  4.1427e-03  2.2491e+00  3.5601e-03  4.7921e-03  9.7512e-04  0:05:56 1777
   224  3.6589e-03  5.7573e-03  4.1539e-03  2.2738e+00  3.4299e-03  4.6693e-03  9.5906e-04  0:04:45 1776
   225  3.5295e-03  5.5760e-03  4.1579e-03  2.2922e+00  3.2926e-03  4.5578e-03  9.4243e-04  0:03:48 1775
   226  3.3909e-03  5.4035e-03  4.1536e-03  2.3015e+00  3.1480e-03  4.4594e-03  9.2011e-04  0:08:57 1774
   227  3.2443e-03  5.2431e-03  4.1416e-03  2.2961e+00  2.9974e-03  4.3486e-03  8.9858e-04  0:07:09 1773
   228  3.0887e-03  5.0692e-03  4.1312e-03  2.2780e+00  2.8404e-03  4.2371e-03  8.8043e-04  0:05:43 1772
   229  2.9301e-03  4.9652e-03  4.1195e-03  2.2491e+00  2.6832e-03  4.1391e-03  8.5948e-04  0:04:34 1771
   230  2.7682e-03  4.9526e-03  4.0837e-03  2.2218e+00  2.5254e-03  4.0587e-03  8.4026e-04  0:03:39 1770
   231  2.6020e-03  4.9815e-03  4.0383e-03  2.1895e+00  2.3658e-03  3.9883e-03  8.2317e-04  0:02:55 1769

  iter  continuity  x-velocity  y-velocity  z-velocity      energy           k       omega     time/iter
   232  2.4332e-03  5.0266e-03  3.9865e-03  2.1471e+00  2.2072e-03  3.9202e-03  8.0468e-04  0:08:14 1768
   233  2.2629e-03  5.0668e-03  3.9284e-03  2.0919e+00  2.0504e-03  3.8609e-03  7.8842e-04  0:06:35 1767
   234  2.0930e-03  5.0902e-03  3.8649e-03  2.0306e+00  1.8977e-03  3.8173e-03  7.6732e-04  0:05:16 1766
   235  1.9250e-03  5.0975e-03  3.7958e-03  1.9602e+00  1.7507e-03  3.7960e-03  7.4491e-04  0:04:12 1765
   236  1.7621e-03  5.0974e-03  3.7211e-03  1.8870e+00  1.6126e-03  3.7740e-03  7.3138e-04  0:03:22 1764
   237  1.6071e-03  5.1015e-03  3.6404e-03  1.8118e+00  1.4863e-03  3.7531e-03  7.2314e-04  0:08:34 1763
   238  1.4648e-03  5.1160e-03  3.5540e-03  1.7352e+00  1.3762e-03  3.7274e-03  7.1437e-04  0:06:51 1762
   239  1.3399e-03  5.1421e-03  3.4624e-03  1.6572e+00  1.2864e-03  3.6987e-03  7.0818e-04  0:05:29 1761
   240  1.2378e-03  5.1774e-03  3.3664e-03  1.5771e+00  1.2202e-03  3.6769e-03  7.0422e-04  0:04:23 1760
   241  1.1637e-03  5.2173e-03  3.2673e-03  1.4958e+00  1.1803e-03  3.6588e-03  6.9879e-04  0:03:30 1759
   242  1.1221e-03  5.2595e-03  3.1663e-03  1.4135e+00  1.1675e-03  3.6476e-03  6.9757e-04  0:02:48 1758

  iter  continuity  x-velocity  y-velocity  z-velocity      energy           k       omega     time/iter
   243  1.1135e-03  5.3008e-03  3.0651e-03  1.3314e+00  1.1798e-03  3.6307e-03  6.9832e-04  0:08:06 1757
   244  1.1363e-03  5.3369e-03  2.9658e-03  1.2543e+00  1.2142e-03  3.6066e-03  6.9857e-04  0:06:28 1756
   245  1.1878e-03  5.3660e-03  2.8699e-03  1.1755e+00  1.2679e-03  3.5785e-03  6.9949e-04  0:05:10 1755
   246  1.2601e-03  5.3866e-03  2.7790e-03  1.0984e+00  1.3352e-03  3.5641e-03  7.0319e-04  0:04:08 1754
   247  1.3446e-03  5.3995e-03  2.6946e-03  1.0252e+00  1.4095e-03  3.5534e-03  7.0427e-04  0:03:18 1753
   248  1.4377e-03  5.4036e-03  2.6181e-03  9.5595e-01  1.4887e-03  3.5364e-03  7.0589e-04  0:02:39 1752
   249  1.5361e-03  5.3989e-03  2.5512e-03  8.9068e-01  1.5710e-03  3.5205e-03  7.0562e-04  0:07:57 1751
   250  1.6340e-03  5.3849e-03  2.4947e-03  8.3004e-01  1.6518e-03  3.5108e-03  7.0783e-04  0:06:21 1750
   251  1.7292e-03  5.3606e-03  2.4495e-03  7.7543e-01  1.7291e-03  3.5079e-03  7.1106e-04  0:05:05 1749
   252  1.8197e-03  5.3260e-03  2.4162e-03  7.2838e-01  1.8015e-03  3.5095e-03  7.1233e-04  0:04:04 1748
   253  1.9036e-03  5.2803e-03  2.3952e-03  6.9085e-01  1.8674e-03  3.5065e-03  7.1018e-04  0:03:15 1747

  iter  continuity  x-velocity  y-velocity  z-velocity      energy           k       omega     time/iter
   254  1.9797e-03  5.2236e-03  2.3864e-03  6.6490e-01  1.9256e-03  3.5087e-03  7.0687e-04  0:08:25 1746
   255  2.0477e-03  5.1567e-03  2.3885e-03  6.5150e-01  1.9760e-03  3.5156e-03  7.0477e-04  0:06:44 1745
   256  2.1066e-03  5.0802e-03  2.4002e-03  6.5000e-01  2.0177e-03  3.5160e-03  7.0313e-04  0:05:23 1744
   257  2.1563e-03  4.9961e-03  2.4210e-03  6.5899e-01  2.0507e-03  3.5269e-03  6.9972e-04  0:04:18 1743
   258  2.1971e-03  4.9041e-03  2.4500e-03  6.7669e-01  2.0751e-03  3.5414e-03  6.9886e-04  0:03:26 1742
   259  2.2288e-03  4.8044e-03  2.4857e-03  7.0091e-01  2.0911e-03  3.5623e-03  6.9638e-04  0:02:45 1741
   260  2.2516e-03  4.6986e-03  2.5266e-03  7.2915e-01  2.0985e-03  3.5717e-03  6.9376e-04  0:08:00 1740
   261  2.2661e-03  4.5865e-03  2.5714e-03  7.5866e-01  2.0982e-03  3.5829e-03  6.9145e-04  0:06:24 1739
   262  2.2722e-03  4.4701e-03  2.6191e-03  7.8701e-01  2.0900e-03  3.6082e-03  6.9081e-04  0:05:07 1738
   263  2.2703e-03  4.3500e-03  2.6692e-03  8.1295e-01  2.0743e-03  3.6256e-03  6.8765e-04  0:04:05 1737
   264  2.2610e-03  4.2300e-03  2.7197e-03  8.3614e-01  2.0519e-03  3.6356e-03  6.8405e-04  0:03:16 1736

  iter  continuity  x-velocity  y-velocity  z-velocity      energy           k       omega     time/iter
   265  2.2438e-03  4.1118e-03  2.7695e-03  8.5564e-01  2.0220e-03  3.6438e-03  6.7997e-04  0:02:37 1735
   266  2.2199e-03  3.9972e-03  2.8182e-03  8.7146e-01  1.9860e-03  3.6593e-03  6.7593e-04  0:07:52 1734
   267  2.1902e-03  3.8886e-03  2.8651e-03  8.8536e-01  1.9447e-03  3.6737e-03  6.7111e-04  0:06:18 1733
   268  2.1553e-03  3.7890e-03  2.9097e-03  8.9586e-01  1.8989e-03  3.6883e-03  6.6425e-04  0:05:02 1732
   269  2.1161e-03  3.7018e-03  2.9514e-03  9.0105e-01  1.8494e-03  3.7143e-03  6.5447e-04  0:04:01 1731
   270  2.0736e-03  3.6290e-03  2.9897e-03  9.0304e-01  1.7973e-03  3.7366e-03  6.5130e-04  0:03:13 1730
   271  2.0287e-03  3.5726e-03  3.0242e-03  9.0066e-01  1.7437e-03  3.7522e-03  6.4751e-04  0:02:34 1729
   272  1.9827e-03  3.5343e-03  3.0544e-03  8.9426e-01  1.6899e-03  3.7668e-03  6.4299e-04  0:07:49 1728
   273  1.9365e-03  3.5148e-03  3.0801e-03  8.8346e-01  1.6370e-03  3.7800e-03  6.3906e-04  0:06:15 1727
   274  1.8879e-03  3.4781e-03  3.0972e-03  8.6863e-01  1.5824e-03  3.7897e-03  6.3762e-04  0:05:00 1726
   275  1.8338e-03  3.3799e-03  3.1041e-03  8.4633e-01  1.5235e-03  3.7866e-03  6.3634e-04  0:04:00 1725

  iter  continuity  x-velocity  y-velocity  z-velocity      energy           k       omega     time/iter
   276  1.7792e-03  3.3241e-03  3.1118e-03  8.2176e-01  1.4650e-03  3.7763e-03  6.3340e-04  0:03:12 1724
   277  1.7178e-03  3.2604e-03  3.1161e-03  7.9345e-01  1.3997e-03  3.7661e-03  6.2708e-04  0:02:33 1723
   278  1.6567e-03  3.2105e-03  3.1138e-03  7.6413e-01  1.3360e-03  3.7605e-03  6.2014e-04  0:07:47 1722
   279  1.5995e-03  3.1798e-03  3.1043e-03  7.3084e-01  1.2777e-03  3.7524e-03  6.1380e-04  0:06:13 1721
   280  1.5461e-03  3.1653e-03  3.0888e-03  6.9284e-01  1.2249e-03  3.7413e-03  6.0873e-04  0:04:58 1720
   281  1.4964e-03  3.1623e-03  3.0680e-03  6.4986e-01  1.1770e-03  3.7239e-03  6.0189e-04  0:03:59 1719
   282  1.4503e-03  3.1675e-03  3.0423e-03  6.0564e-01  1.1343e-03  3.7216e-03  5.9468e-04  0:03:11 1718
   283  1.4079e-03  3.1782e-03  3.0119e-03  5.6220e-01  1.0966e-03  3.7296e-03  5.8599e-04  0:02:33 1717
   284  1.3696e-03  3.1915e-03  2.9771e-03  5.1932e-01  1.0642e-03  3.7336e-03  5.7688e-04  0:07:45 1716
   285  1.3353e-03  3.2054e-03  2.9380e-03  4.7698e-01  1.0371e-03  3.7314e-03  5.6636e-04  0:06:12 1715
   286  1.3053e-03  3.2184e-03  2.8950e-03  4.4044e-01  1.0150e-03  3.7255e-03  5.5494e-04  0:04:57 1714

  iter  continuity  x-velocity  y-velocity  z-velocity      energy           k       omega     time/iter
   287  1.2802e-03  3.2287e-03  2.8484e-03  4.0958e-01  9.9888e-04  3.7114e-03  5.4124e-04  0:03:58 1713
   288  1.2597e-03  3.2352e-03  2.7984e-03  3.8572e-01  9.8791e-04  3.6954e-03  5.2929e-04  0:03:10 1712
   289  1.2420e-03  3.2374e-03  2.7455e-03  3.6899e-01  9.7967e-04  3.6753e-03  5.1724e-04  0:02:32 1711
   290  1.2280e-03  3.2341e-03  2.6899e-03  3.5946e-01  9.7507e-04  3.6497e-03  5.0635e-04  0:07:44 1710
   291  1.2183e-03  3.2249e-03  2.6323e-03  3.5603e-01  9.7454e-04  3.6221e-03  4.9679e-04  0:06:11 1709
   292  1.2109e-03  3.2094e-03  2.5729e-03  3.5953e-01  9.7565e-04  3.5912e-03  4.8894e-04  0:04:56 1708
   293  1.2063e-03  3.1876e-03  2.5122e-03  3.6936e-01  9.7881e-04  3.5649e-03  4.8190e-04  0:03:57 1707
   294  1.2037e-03  3.1595e-03  2.4507e-03  3.8383e-01  9.8287e-04  3.5405e-03  4.7533e-04  0:03:09 1706
   295  1.2027e-03  3.1254e-03  2.3889e-03  4.0201e-01  9.8754e-04  3.5250e-03  4.7110e-04  0:08:12 1705
   296  1.2031e-03  3.0858e-03  2.3272e-03  4.2303e-01  9.9237e-04  3.5012e-03  4.6435e-04  0:06:34 1704
   297  1.2044e-03  3.0411e-03  2.2662e-03  4.4606e-01  9.9694e-04  3.4757e-03  4.5851e-04  0:05:15 1703

  iter  continuity  x-velocity  y-velocity  z-velocity      energy           k       omega     time/iter
   298  1.2065e-03  2.9915e-03  2.2066e-03  4.7088e-01  1.0010e-03  3.4638e-03  4.5244e-04  0:04:12 1702
   299  1.2093e-03  2.9387e-03  2.1487e-03  4.9688e-01  1.0046e-03  3.4477e-03  4.4600e-04  0:03:21 1701
   300  1.2127e-03  2.8828e-03  2.0932e-03  5.2350e-01  1.0076e-03  3.4286e-03  4.4027e-04  0:02:41 1700
   301  1.2170e-03  2.8247e-03  2.0403e-03  5.4968e-01  1.0104e-03  3.4090e-03  4.3399e-04  0:07:48 1699
   302  1.2222e-03  2.7652e-03  1.9911e-03  5.7571e-01  1.0132e-03  3.3963e-03  4.2787e-04  0:06:15 1698
   303  1.2286e-03  2.7054e-03  1.9461e-03  6.0115e-01  1.0162e-03  3.3808e-03  4.2040e-04  0:04:59 1697
   304  1.2365e-03  2.6458e-03  1.9061e-03  6.2615e-01  1.0198e-03  3.3570e-03  4.1317e-04  0:03:59 1696
   305  1.2463e-03  2.5870e-03  1.8714e-03  6.4972e-01  1.0246e-03  3.3309e-03  4.0587e-04  0:03:11 1695
   306  1.2582e-03  2.5301e-03  1.8426e-03  6.7251e-01  1.0309e-03  3.3093e-03  3.9938e-04  0:08:12 1694
   307  1.2725e-03  2.4760e-03  1.8201e-03  6.9400e-01  1.0393e-03  3.2915e-03  3.9359e-04  0:06:33 1693
   308  1.2898e-03  2.4242e-03  1.8040e-03  7.1484e-01  1.0502e-03  3.2700e-03  3.8770e-04  0:05:14 1692

  iter  continuity  x-velocity  y-velocity  z-velocity      energy           k       omega     time/iter
   309  1.3101e-03  2.3758e-03  1.7945e-03  7.3417e-01  1.0639e-03  3.2439e-03  3.8212e-04  0:04:11 1691
   310  1.3335e-03  2.3310e-03  1.7918e-03  7.5220e-01  1.0808e-03  3.2117e-03  3.7870e-04  0:03:21 1690
   311  1.3601e-03  2.2904e-03  1.7958e-03  7.6916e-01  1.1008e-03  3.1760e-03  3.7471e-04  0:02:41 1689
   312  1.3898e-03  2.2542e-03  1.8062e-03  7.8479e-01  1.1238e-03  3.1383e-03  3.6899e-04  0:07:46 1688
   313  1.4223e-03  2.2229e-03  1.8227e-03  7.9930e-01  1.1498e-03  3.0917e-03  3.6182e-04  0:06:13 1687
   314  1.4574e-03  2.1962e-03  1.8450e-03  8.1337e-01  1.1785e-03  3.0397e-03  3.5584e-04  0:04:58 1686
   315  1.4946e-03  2.1736e-03  1.8726e-03  8.2712e-01  1.2093e-03  2.9900e-03  3.4978e-04  0:03:58 1685
   316  1.5334e-03  2.1547e-03  1.9050e-03  8.4051e-01  1.2419e-03  2.9403e-03  3.4456e-04  0:03:10 1684
   317  1.5732e-03  2.1394e-03  1.9415e-03  8.5378e-01  1.2754e-03  2.8862e-03  3.3793e-04  0:02:32 1683
   318  1.6134e-03  2.1270e-03  1.9814e-03  8.6655e-01  1.3094e-03  2.8375e-03  3.3217e-04  0:07:38 1682
   319  1.6533e-03  2.1170e-03  2.0247e-03  8.7870e-01  1.3430e-03  2.7933e-03  3.2675e-04  0:06:06 1681

  iter  continuity  x-velocity  y-velocity  z-velocity      energy           k       omega     time/iter
   320  1.6924e-03  2.1086e-03  2.0704e-03  8.8990e-01  1.3758e-03  2.7446e-03  3.2039e-04  0:04:53 1680
   321  1.7301e-03  2.1013e-03  2.1180e-03  8.9990e-01  1.4070e-03  2.6930e-03  3.1402e-04  0:03:54 1679
   322  1.7656e-03  2.0945e-03  2.1668e-03  9.0910e-01  1.4360e-03  2.6410e-03  3.0685e-04  0:03:07 1678
   323  1.7986e-03  2.0879e-03  2.2164e-03  9.1740e-01  1.4623e-03  2.5872e-03  2.9994e-04  0:02:30 1677
   324  1.8284e-03  2.0815e-03  2.2664e-03  9.2493e-01  1.4854e-03  2.5305e-03  2.9512e-04  0:07:35 1676
   325  1.8547e-03  2.0751e-03  2.3163e-03  9.3216e-01  1.5048e-03  2.4710e-03  2.9072e-04  0:06:04 1675
   326  1.8771e-03  2.0683e-03  2.3656e-03  9.3963e-01  1.5203e-03  2.4195e-03  2.8626e-04  0:04:51 1674
   327  1.8952e-03  2.0600e-03  2.4140e-03  9.4957e-01  1.5315e-03  2.3682e-03  2.8092e-04  0:03:52 1673
   328  1.9088e-03  2.0511e-03  2.4609e-03  9.5959e-01  1.5382e-03  2.3147e-03  2.7546e-04  0:03:06 1672
   329  1.9181e-03  2.0441e-03  2.5061e-03  9.6841e-01  1.5405e-03  2.2554e-03  2.6931e-04  0:02:29 1671
   330  1.9227e-03  2.0368e-03  2.5496e-03  9.7597e-01  1.5383e-03  2.1936e-03  2.6214e-04  0:07:33 1670

  iter  continuity  x-velocity  y-velocity  z-velocity      energy           k       omega     time/iter
   331  1.9225e-03  2.0288e-03  2.5909e-03  9.8199e-01  1.5314e-03  2.1347e-03  2.5459e-04  0:06:02 1669
   332  1.9176e-03  2.0214e-03  2.6298e-03  9.8631e-01  1.5200e-03  2.0765e-03  2.4798e-04  0:04:49 1668
   333  1.9082e-03  2.0151e-03  2.6659e-03  9.8989e-01  1.5042e-03  2.0176e-03  2.4136e-04  0:03:51 1667
   334  1.8947e-03  2.0080e-03  2.7014e-03  9.9412e-01  1.4847e-03  1.9593e-03  2.3494e-04  0:03:05 1666
   335  1.8768e-03  2.0048e-03  2.7336e-03  9.9805e-01  1.4610e-03  1.9013e-03  2.2782e-04  0:08:01 1665
   336  1.8538e-03  1.9929e-03  2.7616e-03  1.0000e+00  1.4324e-03  1.8421e-03  2.2085e-04  0:06:25 1664
   337  1.8270e-03  1.9893e-03  2.7856e-03  9.9870e-01  1.4005e-03  1.7870e-03  2.1472e-04  0:05:07 1663
   338  1.7970e-03  1.9953e-03  2.8061e-03  9.9530e-01  1.3659e-03  1.7303e-03  2.0864e-04  0:04:06 1662
   339  1.7640e-03  2.0067e-03  2.8233e-03  9.8839e-01  1.3288e-03  1.6715e-03  2.0235e-04  0:03:17 1661
   340  1.7283e-03  2.0224e-03  2.8371e-03  9.7743e-01  1.2897e-03  1.6133e-03  1.9657e-04  0:02:37 1660
   341  1.6904e-03  2.0417e-03  2.8472e-03  9.6323e-01  1.2488e-03  1.5595e-03  1.9234e-04  0:07:37 1659

  iter  continuity  x-velocity  y-velocity  z-velocity      energy           k       omega     time/iter
   342  1.6506e-03  2.0644e-03  2.8531e-03  9.4622e-01  1.2066e-03  1.5101e-03  1.8816e-04  0:06:06 1658
   343  1.6091e-03  2.0904e-03  2.8549e-03  9.2709e-01  1.1635e-03  1.4638e-03  1.8332e-04  0:04:52 1657
   344  1.5664e-03  2.1176e-03  2.8526e-03  9.0646e-01  1.1200e-03  1.4206e-03  1.7862e-04  0:03:54 1656
   345  1.5233e-03  2.1464e-03  2.8458e-03  8.8480e-01  1.0767e-03  1.3796e-03  1.7448e-04  0:08:38 1655
   346  1.4795e-03  2.1789e-03  2.8343e-03  8.6213e-01  1.0336e-03  1.3381e-03  1.7018e-04  0:06:54 1654
   347  1.4353e-03  2.2122e-03  2.8185e-03  8.3803e-01  9.9104e-04  1.2976e-03  1.6588e-04  0:05:31 1653
   348  1.3912e-03  2.2449e-03  2.7986e-03  8.1357e-01  9.4959e-04  1.2582e-03  1.6199e-04  0:04:25 1652
   349  1.3477e-03  2.2763e-03  2.7749e-03  7.8916e-01  9.0971e-04  1.2227e-03  1.5848e-04  0:03:32 1651
   350  1.3050e-03  2.3062e-03  2.7472e-03  7.6270e-01  8.7171e-04  1.1932e-03  1.5605e-04  0:02:49 1650
   351  1.2636e-03  2.3338e-03  2.7157e-03  7.3400e-01  8.3595e-04  1.1653e-03  1.5474e-04  0:07:45 1649
   352  1.2236e-03  2.3588e-03  2.6806e-03  7.0364e-01  8.0272e-04  1.1406e-03  1.5380e-04  0:06:12 1648

  iter  continuity  x-velocity  y-velocity  z-velocity      energy           k       omega     time/iter
   353  1.1853e-03  2.3805e-03  2.6421e-03  6.7260e-01  7.7220e-04  1.1217e-03  1.5283e-04  0:04:57 1647
   354  1.1488e-03  2.3989e-03  2.6003e-03  6.4170e-01  7.4458e-04  1.1039e-03  1.5087e-04  0:03:58 1646
   355  1.1142e-03  2.4133e-03  2.5555e-03  6.1128e-01  7.1960e-04  1.0880e-03  1.4992e-04  0:03:10 1645
   356  1.0815e-03  2.4235e-03  2.5080e-03  5.8102e-01  6.9715e-04  1.0737e-03  1.4990e-04  0:02:32 1644
   357  1.0508e-03  2.4293e-03  2.4579e-03  5.5147e-01  6.7744e-04  1.0613e-03  1.4993e-04  0:07:30 1643
   358  1.0224e-03  2.4304e-03  2.4055e-03  5.2284e-01  6.6038e-04  1.0521e-03  1.5047e-04  0:06:00 1642
   359  9.9602e-04  2.4268e-03  2.3513e-03  4.9511e-01  6.4575e-04  1.0449e-03  1.5087e-04  0:04:48 1641
   360  9.7177e-04  2.4185e-03  2.2953e-03  4.6830e-01  6.3329e-04  1.0385e-03  1.5096e-04  0:03:50 1640
   361  9.4949e-04  2.4055e-03  2.2379e-03  4.4227e-01  6.2266e-04  1.0328e-03  1.5168e-04  0:03:04 1639
   362  9.2909e-04  2.3879e-03  2.1795e-03  4.1719e-01  6.1358e-04  1.0283e-03  1.5257e-04  0:07:55 1638
   363  9.1045e-04  2.3658e-03  2.1204e-03  3.9311e-01  6.0576e-04  1.0246e-03  1.5330e-04  0:06:19 1637

  iter  continuity  x-velocity  y-velocity  z-velocity      energy           k       omega     time/iter
   364  8.9347e-04  2.3394e-03  2.0608e-03  3.7026e-01  5.9898e-04  1.0219e-03  1.5390e-04  0:05:03 1636
   365  8.7805e-04  2.3090e-03  2.0012e-03  3.4827e-01  5.9303e-04  1.0215e-03  1.5348e-04  0:04:03 1635
   366  8.6410e-04  2.2748e-03  1.9418e-03  3.2672e-01  5.8773e-04  1.0215e-03  1.5364e-04  0:03:14 1634
   367  8.5154e-04  2.2372e-03  1.8831e-03  3.0467e-01  5.8300e-04  1.0232e-03  1.5414e-04  0:02:35 1633
   368  8.4033e-04  2.1963e-03  1.8256e-03  2.8376e-01  5.7878e-04  1.0258e-03  1.5418e-04  0:07:30 1632
   369  8.3040e-04  2.1529e-03  1.7695e-03  2.6399e-01  5.7506e-04  1.0278e-03  1.5421e-04  0:06:00 1631
   370  8.2176e-04  2.1079e-03  1.7150e-03  2.4551e-01  5.7183e-04  1.0267e-03  1.5443e-04  0:04:48 1630
   371  8.1439e-04  2.0614e-03  1.6623e-03  2.2862e-01  5.6914e-04  1.0246e-03  1.5459e-04  0:03:50 1629
   372  8.0827e-04  2.0139e-03  1.6117e-03  2.1386e-01  5.6704e-04  1.0225e-03  1.5487e-04  0:03:04 1628
   373  8.0348e-04  1.9658e-03  1.5637e-03  2.0146e-01  5.6569e-04  1.0210e-03  1.5543e-04  0:02:27 1627
   374  7.9992e-04  1.9175e-03  1.5183e-03  1.9155e-01  5.6507e-04  1.0202e-03  1.5586e-04  0:01:58 1626

  iter  continuity  x-velocity  y-velocity  z-velocity      energy           k       omega     time/iter
   375  7.9755e-04  1.8693e-03  1.4759e-03  1.8429e-01  5.6521e-04  1.0204e-03  1.5619e-04  0:06:59 1625
   376  7.9653e-04  1.8215e-03  1.4367e-03  1.7969e-01  5.6642e-04  1.0209e-03  1.5623e-04  0:05:35 1624
   377  7.9675e-04  1.7743e-03  1.4008e-03  1.7746e-01  5.6863e-04  1.0219e-03  1.5598e-04  0:04:28 1623
   378  7.9809e-04  1.7282e-03  1.3683e-03  1.7708e-01  5.7175e-04  1.0235e-03  1.5531e-04  0:03:34 1622
   379  8.0045e-04  1.6832e-03  1.3392e-03  1.7829e-01  5.7572e-04  1.0233e-03  1.5507e-04  0:02:51 1621
   380  8.0369e-04  1.6397e-03  1.3135e-03  1.8054e-01  5.8045e-04  1.0233e-03  1.5491e-04  0:02:17 1620
   381  8.0767e-04  1.5978e-03  1.2911e-03  1.8376e-01  5.8582e-04  1.0234e-03  1.5458e-04  0:07:13 1619
   382  8.1223e-04  1.5577e-03  1.2718e-03  1.8743e-01  5.9169e-04  1.0239e-03  1.5385e-04  0:05:46 1618
   383  8.1719e-04  1.5195e-03  1.2555e-03  1.9122e-01  5.9787e-04  1.0269e-03  1.5312e-04  0:04:37 1617
   384  8.2233e-04  1.4829e-03  1.2421e-03  1.9534e-01  6.0418e-04  1.0303e-03  1.5236e-04  0:03:41 1616
   385  8.2747e-04  1.4481e-03  1.2312e-03  1.9964e-01  6.1041e-04  1.0336e-03  1.5158e-04  0:02:57 1615

  iter  continuity  x-velocity  y-velocity  z-velocity      energy           k       omega     time/iter
   386  8.3239e-04  1.4150e-03  1.2226e-03  2.0381e-01  6.1635e-04  1.0356e-03  1.5095e-04  0:02:22 1614
   387  8.3688e-04  1.3838e-03  1.2159e-03  2.0754e-01  6.2180e-04  1.0364e-03  1.5044e-04  0:07:16 1613
   388  8.4073e-04  1.3541e-03  1.2110e-03  2.1061e-01  6.2653e-04  1.0346e-03  1.4995e-04  0:05:48 1612
   389  8.4374e-04  1.3261e-03  1.2076e-03  2.1333e-01  6.3036e-04  1.0317e-03  1.4907e-04  0:04:39 1611
   390  8.4573e-04  1.2995e-03  1.2053e-03  2.1575e-01  6.3312e-04  1.0289e-03  1.4794e-04  0:03:43 1610
   391  8.4654e-04  1.2744e-03  1.2040e-03  2.1780e-01  6.3463e-04  1.0256e-03  1.4670e-04  0:02:58 1609
   392  8.4600e-04  1.2507e-03  1.2034e-03  2.1935e-01  6.3477e-04  1.0241e-03  1.4524e-04  0:02:22 1608
   393  8.4402e-04  1.2283e-03  1.2031e-03  2.2009e-01  6.3343e-04  1.0250e-03  1.4420e-04  0:01:54 1607
   394  8.4047e-04  1.2072e-03  1.2032e-03  2.2015e-01  6.3051e-04  1.0269e-03  1.4286e-04  0:06:52 1606
   395  8.3530e-04  1.1875e-03  1.2032e-03  2.1968e-01  6.2597e-04  1.0282e-03  1.4133e-04  0:05:30 1605
   396  8.2845e-04  1.1692e-03  1.2031e-03  2.1856e-01  6.1979e-04  1.0306e-03  1.3962e-04  0:04:23 1604

  iter  continuity  x-velocity  y-velocity  z-velocity      energy           k       omega     time/iter
   397  8.1992e-04  1.1524e-03  1.2026e-03  2.1667e-01  6.1197e-04  1.0320e-03  1.3799e-04  0:03:31 1603
   398  8.0973e-04  1.1371e-03  1.2016e-03  2.1433e-01  6.0255e-04  1.0328e-03  1.3633e-04  0:02:48 1602
   399  7.9791e-04  1.1233e-03  1.2000e-03  2.1165e-01  5.9159e-04  1.0333e-03  1.3434e-04  0:02:15 1601
   400  7.8452e-04  1.1112e-03  1.1976e-03  2.0863e-01  5.7918e-04  1.0281e-03  1.3219e-04  0:07:08 1600
   401  7.6966e-04  1.1006e-03  1.1944e-03  2.0531e-01  5.6544e-04  1.0197e-03  1.2978e-04  0:05:42 1599
   402  7.5343e-04  1.0918e-03  1.1901e-03  2.0186e-01  5.5049e-04  1.0088e-03  1.2736e-04  0:04:33 1598
   403  7.3596e-04  1.0845e-03  1.1847e-03  1.9841e-01  5.3448e-04  9.9591e-04  1.2475e-04  0:03:39 1597
   404  7.1736e-04  1.0789e-03  1.1782e-03  1.9504e-01  5.1757e-04  9.8172e-04  1.2210e-04  0:02:55 1596
   405  6.9780e-04  1.0748e-03  1.1705e-03  1.9192e-01  4.9991e-04  9.6688e-04  1.1950e-04  0:02:20 1595
   406  6.7743e-04  1.0723e-03  1.1614e-03  1.8925e-01  4.8170e-04  9.5245e-04  1.1671e-04  0:07:10 1594
   407  6.5641e-04  1.0710e-03  1.1510e-03  1.8722e-01  4.6312e-04  9.3845e-04  1.1371e-04  0:05:44 1593

  iter  continuity  x-velocity  y-velocity  z-velocity      energy           k       omega     time/iter
   408  6.3490e-04  1.0710e-03  1.1393e-03  1.8616e-01  4.4435e-04  9.2649e-04  1.1080e-04  0:04:35 1592
   409  6.1308e-04  1.0720e-03  1.1262e-03  1.8631e-01  4.2558e-04  9.1601e-04  1.0788e-04  0:03:40 1591
   410  5.9111e-04  1.0739e-03  1.1116e-03  1.8774e-01  4.0700e-04  9.0616e-04  1.0418e-04  0:02:56 1590
   411  5.6917e-04  1.0763e-03  1.0957e-03  1.9066e-01  3.8880e-04  8.9442e-04  1.0151e-04  0:02:21 1589
   412  5.4741e-04  1.0792e-03  1.0785e-03  1.9484e-01  3.7116e-04  8.8069e-04  9.8848e-05  0:01:52 1588
   413  5.2599e-04  1.0822e-03  1.0599e-03  2.0029e-01  3.5424e-04  8.6555e-04  9.6376e-05  0:06:47 1587
   414  5.0500e-04  1.0852e-03  1.0397e-03  2.0669e-01  3.3811e-04  8.4912e-04  9.4165e-05  0:05:26 1586
   415  4.8455e-04  1.0880e-03  1.0183e-03  2.1393e-01  3.2290e-04  8.3268e-04  9.1922e-05  0:04:20 1585
   416  4.6480e-04  1.0903e-03  9.9589e-04  2.2181e-01  3.0874e-04  8.1665e-04  8.9937e-05  0:03:28 1584
   417  4.4583e-04  1.0919e-03  9.7242e-04  2.3014e-01  2.9571e-04  8.0033e-04  8.7995e-05  0:02:46 1583
   418  4.2773e-04  1.0927e-03  9.4795e-04  2.3869e-01  2.8382e-04  7.8404e-04  8.6059e-05  0:02:13 1582

  iter  continuity  x-velocity  y-velocity  z-velocity      energy           k       omega     time/iter
   419  4.1052e-04  1.0926e-03  9.2257e-04  2.4739e-01  2.7304e-04  7.6756e-04  8.4326e-05  0:07:03 1581
   420  3.9421e-04  1.0914e-03  8.9637e-04  2.5601e-01  2.6328e-04  7.5093e-04  8.2733e-05  0:05:38 1580
   421  3.7878e-04  1.0892e-03  8.6945e-04  2.6468e-01  2.5445e-04  7.3390e-04  8.1312e-05  0:04:30 1579
   422  3.6419e-04  1.0857e-03  8.4192e-04  2.7282e-01  2.4642e-04  7.1708e-04  8.0035e-05  0:03:36 1578
   423  3.5039e-04  1.0811e-03  8.1387e-04  2.8080e-01  2.3899e-04  7.0017e-04  7.8905e-05  0:02:53 1577
   424  3.3731e-04  1.0752e-03  7.8543e-04  2.8834e-01  2.3203e-04  6.8280e-04  7.7845e-05  0:07:33 1576
   425  3.2490e-04  1.0680e-03  7.5671e-04  2.9529e-01  2.2539e-04  6.6725e-04  7.6863e-05  0:06:02 1575
   426  3.1203e-04  1.0633e-03  7.2482e-04  3.0081e-01  2.1768e-04  6.5197e-04  7.6031e-05  0:04:50 1574
   427  2.9849e-04  1.0639e-03  6.9112e-04  3.0500e-01  2.0894e-04  6.3671e-04  7.5103e-05  0:03:52 1573
   428  2.8705e-04  1.0522e-03  6.6409e-04  3.0805e-01  2.0228e-04  6.2256e-04  7.4184e-05  0:03:05 1572
   429  2.7686e-04  1.0363e-03  6.3811e-04  3.1052e-01  1.9629e-04  6.0829e-04  7.3427e-05  0:02:28 1571

  iter  continuity  x-velocity  y-velocity  z-velocity      energy           k       omega     time/iter
   430  2.6748e-04  1.0199e-03  6.1163e-04  3.1213e-01  1.9044e-04  5.9453e-04  7.2479e-05  0:07:12 1570
   431  2.5862e-04  1.0040e-03  5.8464e-04  3.1252e-01  1.8452e-04  5.8163e-04  7.1613e-05  0:05:46 1569
   432  2.5016e-04  9.8835e-04  5.5758e-04  3.1192e-01  1.7845e-04  5.6804e-04  7.1120e-05  0:04:36 1568
   433  2.4204e-04  9.7275e-04  5.3083e-04  3.1049e-01  1.7225e-04  5.5474e-04  7.0498e-05  0:03:41 1567
   434  2.3434e-04  9.5698e-04  5.0467e-04  3.0822e-01  1.6606e-04  5.4076e-04  7.0111e-05  0:02:57 1566
   435  2.2714e-04  9.4100e-04  4.7927e-04  3.0501e-01  1.6004e-04  5.2640e-04  6.9817e-05  0:02:21 1565
   436  2.2059e-04  9.2489e-04  4.5475e-04  3.0125e-01  1.5442e-04  5.1193e-04  6.9565e-05  0:07:06 1564
   437  2.1481e-04  9.0874e-04  4.3116e-04  2.9668e-01  1.4942e-04  4.9785e-04  6.9369e-05  0:05:40 1563
   438  2.0993e-04  8.9265e-04  4.0857e-04  2.9154e-01  1.4526e-04  4.8515e-04  6.9287e-05  0:04:32 1562
   439  2.0606e-04  8.7671e-04  3.8701e-04  2.8584e-01  1.4217e-04  4.7395e-04  6.9195e-05  0:03:38 1561
   440  2.0327e-04  8.6099e-04  3.6652e-04  2.7970e-01  1.4028e-04  4.6342e-04  6.9121e-05  0:02:54 1560

  iter  continuity  x-velocity  y-velocity  z-velocity      energy           k       omega     time/iter
   441  2.0160e-04  8.4557e-04  3.4715e-04  2.7302e-01  1.3972e-04  4.5441e-04  6.9112e-05  0:02:19 1559
   442  2.0103e-04  8.3048e-04  3.2893e-04  2.6595e-01  1.4046e-04  4.4594e-04  6.8926e-05  0:07:03 1558
   443  2.0147e-04  8.1578e-04  3.1189e-04  2.5845e-01  1.4239e-04  4.3646e-04  6.8918e-05  0:05:38 1557
   444  2.0277e-04  8.0149e-04  2.9608e-04  2.5063e-01  1.4530e-04  4.2781e-04  6.9142e-05  0:04:30 1556
   445  2.0476e-04  7.8764e-04  2.8153e-04  2.4248e-01  1.4895e-04  4.1951e-04  6.9403e-05  0:03:36 1555
   446  2.0726e-04  7.7426e-04  2.6825e-04  2.3408e-01  1.5308e-04  4.1199e-04  6.9566e-05  0:02:53 1554
   447  2.1005e-04  7.6137e-04  2.5626e-04  2.2553e-01  1.5744e-04  4.0520e-04  6.9718e-05  0:02:18 1553
   448  2.1294e-04  7.4898e-04  2.4555e-04  2.1707e-01  1.6177e-04  3.9936e-04  6.9703e-05  0:01:50 1552
   449  2.1578e-04  7.3708e-04  2.3612e-04  2.0879e-01  1.6590e-04  3.9541e-04  6.9737e-05  0:06:38 1551
   450  2.1843e-04  7.2571e-04  2.2799e-04  2.0079e-01  1.6968e-04  3.9275e-04  6.9809e-05  0:05:19 1550
   451  2.2080e-04  7.1479e-04  2.2109e-04  1.9308e-01  1.7302e-04  3.9025e-04  6.9896e-05  0:04:15 1549

  iter  continuity  x-velocity  y-velocity  z-velocity      energy           k       omega     time/iter
   452  2.2285e-04  7.0436e-04  2.1537e-04  1.8576e-01  1.7587e-04  3.8772e-04  7.0137e-05  0:03:24 1548
   453  2.2450e-04  6.9455e-04  2.1068e-04  1.7892e-01  1.7820e-04  3.8574e-04  7.0515e-05  0:02:43 1547
   454  2.2584e-04  6.8509e-04  2.0718e-04  1.7249e-01  1.8009e-04  3.8549e-04  7.0920e-05  0:02:10 1546
   455  2.2689e-04  6.7608e-04  2.0467e-04  1.6625e-01  1.8160e-04  3.8744e-04  7.1411e-05  0:06:53 1545
   456  2.2771e-04  6.6756e-04  2.0303e-04  1.6055e-01  1.8280e-04  3.9095e-04  7.2123e-05  0:05:30 1544
   457  2.2839e-04  6.5949e-04  2.0219e-04  1.5535e-01  1.8381e-04  3.9644e-04  7.3369e-05  0:04:24 1543
   458  2.2898e-04  6.5187e-04  2.0203e-04  1.5046e-01  1.8471e-04  4.0295e-04  7.4494e-05  0:03:31 1542
   459  2.2956e-04  6.4469e-04  2.0247e-04  1.4591e-01  1.8559e-04  4.0977e-04  7.5494e-05  0:02:49 1541
   460  2.3019e-04  6.3796e-04  2.0341e-04  1.4175e-01  1.8654e-04  4.1729e-04  7.6506e-05  0:02:15 1540
   461  2.3092e-04  6.3164e-04  2.0476e-04  1.3767e-01  1.8760e-04  4.2623e-04  7.7639e-05  0:06:56 1539
   462  2.3172e-04  6.2577e-04  2.0630e-04  1.3379e-01  1.8876e-04  4.3620e-04  7.8895e-05  0:05:32 1538

  iter  continuity  x-velocity  y-velocity  z-velocity      energy           k       omega     time/iter
   463  2.3262e-04  6.2028e-04  2.0809e-04  1.3009e-01  1.9005e-04  4.4655e-04  8.0277e-05  0:04:26 1537
   464  2.3364e-04  6.1515e-04  2.1008e-04  1.2647e-01  1.9149e-04  4.5643e-04  8.1603e-05  0:03:32 1536
   465  2.3475e-04  6.1037e-04  2.1218e-04  1.2298e-01  1.9303e-04  4.6556e-04  8.3033e-05  0:02:50 1535
   466  2.3590e-04  6.0594e-04  2.1433e-04  1.1973e-01  1.9462e-04  4.7427e-04  8.4484e-05  0:02:16 1534
   467  2.3705e-04  6.0183e-04  2.1647e-04  1.1657e-01  1.9620e-04  4.8222e-04  8.5959e-05  0:01:49 1533
   468  2.3816e-04  5.9803e-04  2.1858e-04  1.1364e-01  1.9771e-04  4.8980e-04  8.7405e-05  0:06:33 1532
   469  2.3918e-04  5.9452e-04  2.2062e-04  1.1099e-01  1.9910e-04  4.9753e-04  8.8769e-05  0:05:14 1531
   470  2.4011e-04  5.9129e-04  2.2258e-04  1.0858e-01  2.0035e-04  5.0521e-04  9.0069e-05  0:04:11 1530
   471  2.4092e-04  5.8833e-04  2.2444e-04  1.0648e-01  2.0144e-04  5.1336e-04  9.1312e-05  0:03:21 1529
   472  2.4160e-04  5.8561e-04  2.2619e-04  1.0449e-01  2.0234e-04  5.2051e-04  9.2468e-05  0:02:41 1528
   473  2.4217e-04  5.8314e-04  2.2783e-04  1.0287e-01  2.0307e-04  5.2647e-04  9.3399e-05  0:07:14 1527

  iter  continuity  x-velocity  y-velocity  z-velocity      energy           k       omega     time/iter
   474  2.4264e-04  5.8090e-04  2.2935e-04  1.0161e-01  2.0366e-04  5.3214e-04  9.4308e-05  0:05:47 1526
   475  2.4306e-04  5.7888e-04  2.3076e-04  1.0057e-01  2.0414e-04  5.3655e-04  9.5275e-05  0:04:37 1525
   476  2.4345e-04  5.7707e-04  2.3205e-04  9.9824e-02  2.0453e-04  5.4057e-04  9.6199e-05  0:03:42 1524
   477  2.4383e-04  5.7548e-04  2.3322e-04  9.9316e-02  2.0487e-04  5.4414e-04  9.6905e-05  0:02:57 1523
   478  2.4423e-04  5.7408e-04  2.3429e-04  9.8928e-02  2.0519e-04  5.4739e-04  9.7761e-05  0:02:22 1522
   479  2.4467e-04  5.7286e-04  2.3526e-04  9.8670e-02  2.0550e-04  5.5071e-04  9.8710e-05  0:01:53 1521
   480  2.4518e-04  5.7182e-04  2.3613e-04  9.8548e-02  2.0583e-04  5.5356e-04  9.9556e-05  0:06:35 1520
   481  2.4576e-04  5.7094e-04  2.3694e-04  9.8400e-02  2.0620e-04  5.5814e-04  1.0074e-04  0:05:15 1519
   482  2.4642e-04  5.7021e-04  2.3769e-04  9.8259e-02  2.0661e-04  5.6377e-04  1.0156e-04  0:04:12 1518
   483  2.4718e-04  5.6961e-04  2.3840e-04  9.8108e-02  2.0707e-04  5.6944e-04  1.0231e-04  0:03:22 1517
   484  2.4803e-04  5.6911e-04  2.3909e-04  9.7777e-02  2.0758e-04  5.7547e-04  1.0295e-04  0:02:41 1516

  iter  continuity  x-velocity  y-velocity  z-velocity      energy           k       omega     time/iter
   485  2.4899e-04  5.6872e-04  2.3978e-04  9.7351e-02  2.0817e-04  5.8111e-04  1.0379e-04  0:02:09 1515
   486  2.5006e-04  5.6842e-04  2.4050e-04  9.6666e-02  2.0883e-04  5.8649e-04  1.0494e-04  0:06:46 1514
   487  2.5124e-04  5.6821e-04  2.4126e-04  9.5745e-02  2.0957e-04  5.9190e-04  1.0576e-04  0:05:24 1513
   488  2.5254e-04  5.6808e-04  2.4210e-04  9.4541e-02  2.1039e-04  5.9732e-04  1.0638e-04  0:04:19 1512
   489  2.5397e-04  5.6802e-04  2.4303e-04  9.3120e-02  2.1132e-04  6.0229e-04  1.0688e-04  0:03:27 1511
   490  2.5551e-04  5.6802e-04  2.4408e-04  9.1466e-02  2.1233e-04  6.0677e-04  1.0761e-04  0:02:46 1510
   491  2.5716e-04  5.6810e-04  2.4528e-04  8.9582e-02  2.1343e-04  6.1132e-04  1.0849e-04  0:02:13 1509
   492  2.5892e-04  5.6823e-04  2.4666e-04  8.7523e-02  2.1460e-04  6.1569e-04  1.0924e-04  0:06:48 1508
   493  2.6079e-04  5.6841e-04  2.4824e-04  8.5304e-02  2.1586e-04  6.1974e-04  1.1006e-04  0:05:26 1507
   494  2.6273e-04  5.6865e-04  2.4999e-04  8.2941e-02  2.1716e-04  6.2396e-04  1.1075e-04  0:04:20 1506
   495  2.6475e-04  5.6893e-04  2.5195e-04  8.0456e-02  2.1852e-04  6.2863e-04  1.1129e-04  0:03:28 1505

  iter  continuity  x-velocity  y-velocity  z-velocity      energy           k       omega     time/iter
   496  2.6683e-04  5.6924e-04  2.5412e-04  7.7868e-02  2.1991e-04  6.3345e-04  1.1180e-04  0:02:46 1504
   497  2.6897e-04  5.6955e-04  2.5651e-04  7.5222e-02  2.2134e-04  6.3777e-04  1.1230e-04  0:02:13 1503
   498  2.7117e-04  5.6986e-04  2.5912e-04  7.2587e-02  2.2280e-04  6.4141e-04  1.1278e-04  0:01:46 1502
   499  2.7343e-04  5.7013e-04  2.6194e-04  7.0047e-02  2.2431e-04  6.4495e-04  1.1327e-04  0:06:25 1501
   500  2.7575e-04  5.7037e-04  2.6498e-04  6.7645e-02  2.2586e-04  6.4802e-04  1.1366e-04  0:05:08 1500
   501  2.7812e-04  5.7057e-04  2.6823e-04  6.5508e-02  2.2744e-04  6.5082e-04  1.1394e-04  0:04:06 1499
   502  2.8055e-04  5.7072e-04  2.7165e-04  6.3602e-02  2.2907e-04  6.5373e-04  1.1418e-04  0:03:17 1498
   503  2.8303e-04  5.7081e-04  2.7524e-04  6.1984e-02  2.3074e-04  6.5602e-04  1.1423e-04  0:02:37 1497
   504  2.8556e-04  5.7084e-04  2.7901e-04  6.0685e-02  2.3245e-04  6.5781e-04  1.1414e-04  0:02:06 1496
   505  2.8816e-04  5.7085e-04  2.8294e-04  5.9712e-02  2.3421e-04  6.5944e-04  1.1431e-04  0:06:40 1495
   506  2.9082e-04  5.7079e-04  2.8703e-04  5.9079e-02  2.3603e-04  6.6053e-04  1.1442e-04  0:05:19 1494

  iter  continuity  x-velocity  y-velocity  z-velocity      energy           k       omega     time/iter
   507  2.9355e-04  5.7065e-04  2.9126e-04  5.8810e-02  2.3792e-04  6.6233e-04  1.1470e-04  0:04:15 1493
   508  2.9634e-04  5.7046e-04  2.9562e-04  5.8925e-02  2.3988e-04  6.6460e-04  1.1459e-04  0:03:24 1492
   509  2.9920e-04  5.7022e-04  3.0011e-04  5.9394e-02  2.4189e-04  6.6454e-04  1.1482e-04  0:02:43 1491
   510  3.0212e-04  5.6998e-04  3.0470e-04  6.0186e-02  2.4397e-04  6.6525e-04  1.1507e-04  0:02:11 1490
   511  3.0510e-04  5.6972e-04  3.0940e-04  6.1270e-02  2.4610e-04  6.6484e-04  1.1532e-04  0:06:42 1489
   512  3.0814e-04  5.6946e-04  3.1419e-04  6.2573e-02  2.4829e-04  6.6382e-04  1.1549e-04  0:05:21 1488
   513  3.1122e-04  5.6920e-04  3.1907e-04  6.4053e-02  2.5053e-04  6.6307e-04  1.1559e-04  0:04:17 1487
   514  3.1436e-04  5.6893e-04  3.2402e-04  6.5648e-02  2.5281e-04  6.6101e-04  1.1560e-04  0:03:25 1486
   515  3.1754e-04  5.6865e-04  3.2903e-04  6.7296e-02  2.5513e-04  6.5793e-04  1.1494e-04  0:02:44 1485
   516  3.2076e-04  5.6836e-04  3.3410e-04  6.8964e-02  2.5749e-04  6.5502e-04  1.1426e-04  0:02:11 1484
   517  3.2402e-04  5.6806e-04  3.3922e-04  7.0626e-02  2.5988e-04  6.5196e-04  1.1356e-04  0:06:42 1483

  iter  continuity  x-velocity  y-velocity  z-velocity      energy           k       omega     time/iter
   518  3.2731e-04  5.6773e-04  3.4437e-04  7.2244e-02  2.6229e-04  6.4864e-04  1.1302e-04  0:05:21 1482
   519  3.3063e-04  5.6740e-04  3.4955e-04  7.3889e-02  2.6472e-04  6.4624e-04  1.1268e-04  0:04:17 1481
   520  3.3398e-04  5.6706e-04  3.5476e-04  7.5590e-02  2.6718e-04  6.4320e-04  1.1253e-04  0:03:25 1480
   521  3.3736e-04  5.6670e-04  3.6000e-04  7.7347e-02  2.6964e-04  6.4029e-04  1.1211e-04  0:02:44 1479
   522  3.4075e-04  5.6635e-04  3.6524e-04  7.9183e-02  2.7211e-04  6.3743e-04  1.1185e-04  0:02:11 1478
   523  3.4416e-04  5.6600e-04  3.7051e-04  8.1051e-02  2.7458e-04  6.3600e-04  1.1159e-04  0:06:40 1477
   524  3.4757e-04  5.6567e-04  3.7578e-04  8.2923e-02  2.7703e-04  6.3413e-04  1.1131e-04  0:05:20 1476
   525  3.5098e-04  5.6535e-04  3.8107e-04  8.4735e-02  2.7947e-04  6.3195e-04  1.1100e-04  0:04:16 1475
   526  3.5439e-04  5.6505e-04  3.8637e-04  8.6457e-02  2.8189e-04  6.2953e-04  1.1051e-04  0:03:25 1474
   527  3.5780e-04  5.6477e-04  3.9168e-04  8.8045e-02  2.8430e-04  6.2740e-04  1.1023e-04  0:02:43 1473
   528  3.6121e-04  5.6452e-04  3.9699e-04  8.9488e-02  2.8669e-04  6.2529e-04  1.0977e-04  0:02:11 1472

  iter  continuity  x-velocity  y-velocity  z-velocity      energy           k       omega     time/iter
   529  3.6462e-04  5.6429e-04  4.0232e-04  9.0796e-02  2.8906e-04  6.2302e-04  1.0922e-04  0:06:39 1471
   530  3.6801e-04  5.6406e-04  4.0764e-04  9.1979e-02  2.9140e-04  6.2067e-04  1.0870e-04  0:05:19 1470
   531  3.7141e-04  5.6385e-04  4.1296e-04  9.3068e-02  2.9373e-04  6.1847e-04  1.0825e-04  0:04:15 1469
   532  3.7482e-04  5.6364e-04  4.1829e-04  9.4098e-02  2.9606e-04  6.1621e-04  1.0781e-04  0:03:24 1468
   533  3.7823e-04  5.6343e-04  4.2360e-04  9.5070e-02  2.9840e-04  6.1378e-04  1.0728e-04  0:02:43 1467
   534  3.8166e-04  5.6323e-04  4.2891e-04  9.5975e-02  3.0074e-04  6.1135e-04  1.0671e-04  0:02:10 1466
   535  3.8510e-04  5.6305e-04  4.3420e-04  9.6786e-02  3.0308e-04  6.0891e-04  1.0610e-04  0:06:37 1465
   536  3.8854e-04  5.6286e-04  4.3946e-04  9.7523e-02  3.0543e-04  6.0700e-04  1.0549e-04  0:05:17 1464
   537  3.9198e-04  5.6267e-04  4.4470e-04  9.8183e-02  3.0776e-04  6.0529e-04  1.0484e-04  0:04:14 1463
   538  3.9541e-04  5.6247e-04  4.4991e-04  9.8773e-02  3.1009e-04  6.0410e-04  1.0419e-04  0:03:23 1462
   539  3.9883e-04  5.6227e-04  4.5507e-04  9.9283e-02  3.1242e-04  6.0311e-04  1.0343e-04  0:02:42 1461

  iter  continuity  x-velocity  y-velocity  z-velocity      energy           k       omega     time/iter
   540  4.0224e-04  5.6208e-04  4.6020e-04  9.9732e-02  3.1473e-04  6.0227e-04  1.0262e-04  0:02:10 1460
   541  4.0563e-04  5.6186e-04  4.6527e-04  1.0014e-01  3.1703e-04  6.0136e-04  1.0197e-04  0:06:35 1459
   542  4.0900e-04  5.6162e-04  4.7029e-04  1.0051e-01  3.1930e-04  6.0042e-04  1.0130e-04  0:05:16 1458
   543  4.1233e-04  5.6138e-04  4.7525e-04  1.0082e-01  3.2155e-04  5.9927e-04  1.0066e-04  0:04:13 1457
   544  4.1563e-04  5.6114e-04  4.8015e-04  1.0103e-01  3.2377e-04  5.9771e-04  1.0005e-04  0:03:22 1456
   545  4.1888e-04  5.6091e-04  4.8499e-04  1.0115e-01  3.2596e-04  5.9553e-04  9.9466e-05  0:02:42 1455
   546  4.2209e-04  5.6070e-04  4.8975e-04  1.0121e-01  3.2811e-04  5.9295e-04  9.8526e-05  0:02:09 1454
   547  4.2525e-04  5.6049e-04  4.9444e-04  1.0120e-01  3.3022e-04  5.8831e-04  9.8205e-05  0:06:34 1453
   548  4.2836e-04  5.6030e-04  4.9905e-04  1.0111e-01  3.3229e-04  5.8576e-04  9.7900e-05  0:05:15 1452
   549  4.3140e-04  5.6014e-04  5.0359e-04  1.0090e-01  3.3432e-04  5.8542e-04  9.7538e-05  0:04:12 1451
   550  4.3439e-04  5.6001e-04  5.0804e-04  1.0056e-01  3.3630e-04  5.8531e-04  9.7044e-05  0:03:21 1450

  iter  continuity  x-velocity  y-velocity  z-velocity      energy           k       omega     time/iter
   551  4.3730e-04  5.5992e-04  5.1241e-04  1.0006e-01  3.3823e-04  5.8712e-04  9.6410e-05  0:02:41 1449
   552  4.4015e-04  5.5987e-04  5.1668e-04  9.9433e-02  3.4010e-04  5.8953e-04  9.5872e-05  0:02:09 1448
   553  4.4291e-04  5.5985e-04  5.2087e-04  9.8686e-02  3.4192e-04  5.9178e-04  9.5363e-05  0:01:43 1447
   554  4.4559e-04  5.5987e-04  5.2497e-04  9.7806e-02  3.4366e-04  5.9380e-04  9.4888e-05  0:06:11 1446
   555  4.4818e-04  5.5993e-04  5.2897e-04  9.6806e-02  3.4534e-04  5.9535e-04  9.4438e-05  0:04:57 1445
   556  4.5067e-04  5.6004e-04  5.3287e-04  9.5699e-02  3.4693e-04  5.9634e-04  9.4009e-05  0:03:57 1444
   557  4.5305e-04  5.6020e-04  5.3667e-04  9.4455e-02  3.4842e-04  5.9707e-04  9.3575e-05  0:03:10 1443
   558  4.5531e-04  5.6041e-04  5.4037e-04  9.3118e-02  3.4981e-04  5.9747e-04  9.3249e-05  0:02:32 1442
   559  4.5744e-04  5.6067e-04  5.4396e-04  9.1713e-02  3.5108e-04  5.9763e-04  9.2978e-05  0:02:01 1441
   560  4.5946e-04  5.6097e-04  5.4745e-04  9.0238e-02  3.5225e-04  5.9774e-04  9.2686e-05  0:06:25 1440
   561  4.6134e-04  5.6131e-04  5.5083e-04  8.8681e-02  3.5329e-04  5.9752e-04  9.2353e-05  0:05:08 1439

  iter  continuity  x-velocity  y-velocity  z-velocity      energy           k       omega     time/iter
   562  4.6311e-04  5.6168e-04  5.5409e-04  8.7060e-02  3.5423e-04  5.9715e-04  9.1853e-05  0:04:06 1438
   563  4.6475e-04  5.6207e-04  5.5725e-04  8.5302e-02  3.5506e-04  5.9724e-04  9.1308e-05  0:03:17 1437
   564  4.6629e-04  5.6249e-04  5.6030e-04  8.3441e-02  3.5579e-04  5.9743e-04  9.0849e-05  0:02:37 1436
   565  4.6773e-04  5.6292e-04  5.6324e-04  8.1502e-02  3.5644e-04  5.9731e-04  9.0412e-05  0:02:06 1435
   566  4.6908e-04  5.6334e-04  5.6607e-04  7.9538e-02  3.5702e-04  5.9747e-04  8.9928e-05  0:06:27 1434
   567  4.7036e-04  5.6376e-04  5.6880e-04  7.7554e-02  3.5756e-04  5.9716e-04  8.9422e-05  0:05:10 1433
   568  4.7158e-04  5.6418e-04  5.7141e-04  7.5547e-02  3.5805e-04  5.9649e-04  8.9100e-05  0:04:08 1432
   569  4.7276e-04  5.6459e-04  5.7393e-04  7.3555e-02  3.5854e-04  5.9546e-04  8.8702e-05  0:03:18 1431
   570  4.7391e-04  5.6498e-04  5.7634e-04  7.1587e-02  3.5902e-04  5.9427e-04  8.8286e-05  0:02:38 1430
   571  4.7504e-04  5.6535e-04  5.7865e-04  6.9654e-02  3.5950e-04  5.9303e-04  8.7828e-05  0:02:06 1429
   572  4.7615e-04  5.6569e-04  5.8086e-04  6.7794e-02  3.6000e-04  5.9210e-04  8.7309e-05  0:06:27 1428

  iter  continuity  x-velocity  y-velocity  z-velocity      energy           k       omega     time/iter
   573  4.7726e-04  5.6599e-04  5.8307e-04  6.6009e-02  3.6054e-04  5.9118e-04  8.6807e-05  0:05:09 1427
   574  4.7838e-04  5.6632e-04  5.8520e-04  6.4307e-02  3.6110e-04  5.9023e-04  8.6300e-05  0:04:07 1426
   575  4.7949e-04  5.6665e-04  5.8719e-04  6.2703e-02  3.6169e-04  5.8970e-04  8.5757e-05  0:03:18 1425
   576  4.8059e-04  5.6693e-04  5.8905e-04  6.1222e-02  3.6228e-04  5.8883e-04  8.5206e-05  0:02:38 1424
   577  4.8166e-04  5.6715e-04  5.9081e-04  5.9863e-02  3.6288e-04  5.8779e-04  8.4634e-05  0:02:06 1423
   578  4.8272e-04  5.6732e-04  5.9247e-04  5.8631e-02  3.6349e-04  5.8671e-04  8.4022e-05  0:06:25 1422
   579  4.8376e-04  5.6743e-04  5.9406e-04  5.7540e-02  3.6410e-04  5.8556e-04  8.3401e-05  0:05:08 1421
   580  4.8479e-04  5.6749e-04  5.9557e-04  5.6582e-02  3.6472e-04  5.8445e-04  8.2684e-05  0:04:06 1420
   581  4.8580e-04  5.6751e-04  5.9700e-04  5.5769e-02  3.6534e-04  5.8345e-04  8.2028e-05  0:03:17 1419
   582  4.8679e-04  5.6747e-04  5.9837e-04  5.5108e-02  3.6597e-04  5.8254e-04  8.1387e-05  0:02:37 1418
   583  4.8776e-04  5.6739e-04  5.9966e-04  5.4596e-02  3.6658e-04  5.8106e-04  8.0787e-05  0:02:06 1417

  iter  continuity  x-velocity  y-velocity  z-velocity      energy           k       omega     time/iter
   584  4.8869e-04  5.6728e-04  6.0087e-04  5.4217e-02  3.6718e-04  5.7970e-04  8.0182e-05  0:06:24 1416
   585  4.8957e-04  5.6714e-04  6.0201e-04  5.3951e-02  3.6774e-04  5.7873e-04  7.9571e-05  0:05:07 1415
   586  4.9040e-04  5.6697e-04  6.0309e-04  5.3766e-02  3.6825e-04  5.7786e-04  7.9039e-05  0:04:05 1414
   587  4.9118e-04  5.6677e-04  6.0408e-04  5.3635e-02  3.6872e-04  5.7709e-04  7.8608e-05  0:03:16 1413
   588  4.9188e-04  5.6654e-04  6.0501e-04  5.3538e-02  3.6911e-04  5.7628e-04  7.8199e-05  0:02:37 1412
   589  4.9251e-04  5.6629e-04  6.0586e-04  5.3462e-02  3.6944e-04  5.7514e-04  7.7826e-05  0:02:05 1411
   590  4.9305e-04  5.6604e-04  6.0663e-04  5.3394e-02  3.6968e-04  5.7366e-04  7.7390e-05  0:06:22 1410
   591  4.9352e-04  5.6577e-04  6.0733e-04  5.3327e-02  3.6984e-04  5.7194e-04  7.6904e-05  0:05:06 1409
   592  4.9390e-04  5.6549e-04  6.0796e-04  5.3255e-02  3.6992e-04  5.6997e-04  7.6416e-05  0:04:04 1408
   593  4.9419e-04  5.6521e-04  6.0850e-04  5.3175e-02  3.6991e-04  5.6778e-04  7.5932e-05  0:03:15 1407
   594  4.9439e-04  5.6491e-04  6.0897e-04  5.3094e-02  3.6981e-04  5.6482e-04  7.5474e-05  0:02:36 1406

  iter  continuity  x-velocity  y-velocity  z-velocity      energy           k       omega     time/iter
   595  4.9451e-04  5.6461e-04  6.0936e-04  5.2991e-02  3.6962e-04  5.6038e-04  7.5017e-05  0:02:05 1405
   596  4.9453e-04  5.6431e-04  6.0968e-04  5.2878e-02  3.6935e-04  5.5602e-04  7.4548e-05  0:01:40 1404
   597  4.9446e-04  5.6402e-04  6.0993e-04  5.2766e-02  3.6897e-04  5.5216e-04  7.4085e-05  0:06:00 1403
   598  4.9431e-04  5.6372e-04  6.1010e-04  5.2664e-02  3.6852e-04  5.4851e-04  7.3586e-05  0:04:48 1402
   599  4.9407e-04  5.6343e-04  6.1019e-04  5.2581e-02  3.6799e-04  5.4475e-04  7.3119e-05  0:03:50 1401
   600  4.9376e-04  5.6314e-04  6.1021e-04  5.2523e-02  3.6738e-04  5.4159e-04  7.2889e-05  0:03:04 1400
   601  4.9336e-04  5.6285e-04  6.1016e-04  5.2488e-02  3.6670e-04  5.3867e-04  7.2540e-05  0:02:27 1399
   602  4.9289e-04  5.6257e-04  6.1004e-04  5.2484e-02  3.6596e-04  5.3535e-04  7.2157e-05  0:01:58 1398
   603  4.9234e-04  5.6229e-04  6.0986e-04  5.2517e-02  3.6514e-04  5.3225e-04  7.1888e-05  0:06:13 1397
   604  4.9171e-04  5.6202e-04  6.0961e-04  5.2594e-02  3.6425e-04  5.2887e-04  7.1670e-05  0:04:59 1396
   605  4.9100e-04  5.6176e-04  6.0929e-04  5.2722e-02  3.6328e-04  5.2540e-04  7.1353e-05  0:03:59 1395

  iter  continuity  x-velocity  y-velocity  z-velocity      energy           k       omega     time/iter
   606  4.9020e-04  5.6151e-04  6.0891e-04  5.2910e-02  3.6224e-04  5.2171e-04  7.1039e-05  0:03:11 1394
   607  4.8932e-04  5.6126e-04  6.0846e-04  5.3164e-02  3.6113e-04  5.1828e-04  7.0795e-05  0:02:33 1393
   608  4.8836e-04  5.6100e-04  6.0795e-04  5.3482e-02  3.5995e-04  5.1476e-04  7.0604e-05  0:02:02 1392
   609  4.8733e-04  5.6074e-04  6.0737e-04  5.3855e-02  3.5869e-04  5.1093e-04  7.0291e-05  0:06:16 1391
   610  4.8621e-04  5.6049e-04  6.0674e-04  5.4274e-02  3.5738e-04  5.0709e-04  6.9900e-05  0:05:00 1390
   611  4.8502e-04  5.6032e-04  6.0604e-04  5.4777e-02  3.5600e-04  5.0319e-04  6.9698e-05  0:04:00 1389
   612  4.8375e-04  5.6014e-04  6.0529e-04  5.5376e-02  3.5455e-04  4.9954e-04  6.9441e-05  0:03:12 1388
   613  4.8239e-04  5.5994e-04  6.0449e-04  5.6007e-02  3.5303e-04  4.9602e-04  6.9163e-05  0:02:33 1387
   614  4.8097e-04  5.5971e-04  6.0365e-04  5.6601e-02  3.5145e-04  4.9259e-04  6.8894e-05  0:02:03 1386
   615  4.7948e-04  5.5943e-04  6.0274e-04  5.7123e-02  3.4982e-04  4.8937e-04  6.8585e-05  0:06:15 1385
   616  4.7798e-04  5.5983e-04  6.0172e-04  5.7559e-02  3.4820e-04  4.8579e-04  6.8250e-05  0:05:00 1384

  iter  continuity  x-velocity  y-velocity  z-velocity      energy           k       omega     time/iter
   617  4.7646e-04  5.6059e-04  6.0063e-04  5.7908e-02  3.4657e-04  4.8239e-04  6.7589e-05  0:04:00 1383
   618  4.7483e-04  5.6038e-04  5.9950e-04  5.8182e-02  3.4484e-04  4.8006e-04  6.7219e-05  0:03:12 1382
   619  4.7314e-04  5.5981e-04  5.9828e-04  5.8385e-02  3.4306e-04  4.7764e-04  6.7034e-05  0:02:33 1381
   620  4.7140e-04  5.5940e-04  5.9701e-04  5.8525e-02  3.4126e-04  4.7492e-04  6.6764e-05  0:02:02 1380
   621  4.6963e-04  5.5903e-04  5.9568e-04  5.8602e-02  3.3945e-04  4.7279e-04  6.6456e-05  0:06:14 1379
   622  4.6783e-04  5.5864e-04  5.9431e-04  5.8618e-02  3.3763e-04  4.7081e-04  6.6128e-05  0:04:59 1378
   623  4.6601e-04  5.5820e-04  5.9288e-04  5.8575e-02  3.3582e-04  4.6813e-04  6.5652e-05  0:03:59 1377
   624  4.6418e-04  5.5772e-04  5.9142e-04  5.8474e-02  3.3402e-04  4.6278e-04  6.5364e-05  0:03:11 1376
[...]
  1838  8.5593e-06  1.9440e-05  1.0450e-05  5.6256e-03  6.2608e-06  5.9032e-06  1.2394e-06  0:00:06  162
  1839  8.4492e-06  1.9224e-05  1.0324e-05  5.6462e-03  6.1817e-06  5.8930e-06  1.2346e-06  0:00:04  161
  1840  8.3395e-06  1.9009e-05  1.0198e-05  5.6673e-03  6.1029e-06  5.8814e-06  1.2297e-06  0:00:04  160
  1841  8.2301e-06  1.8795e-05  1.0072e-05  5.6884e-03  6.0243e-06  5.8716e-06  1.2249e-06  0:00:03  159
  1842  8.1211e-06  1.8581e-05  9.9463e-06  5.7094e-03  5.9461e-06  5.8629e-06  1.2199e-06  0:00:02  158
  1843  8.0125e-06  1.8368e-05  9.8212e-06  5.7307e-03  5.8680e-06  5.8535e-06  1.2149e-06  0:00:02  157
  1844  7.9042e-06  1.8155e-05  9.6964e-06  5.7522e-03  5.7903e-06  5.8444e-06  1.2097e-06  0:00:01  156
  1845  7.7963e-06  1.7943e-05  9.5720e-06  5.7740e-03  5.7129e-06  5.8423e-06  1.2044e-06  0:00:01  155
  1846  7.6887e-06  1.7732e-05  9.4479e-06  5.7959e-03  5.6357e-06  5.8427e-06  1.1991e-06  0:00:32  154
  1847  7.5816e-06  1.7521e-05  9.3242e-06  5.8177e-03  5.5588e-06  5.8453e-06  1.1937e-06  0:00:25  153
  1848  7.4748e-06  1.7311e-05  9.2008e-06  5.8394e-03  5.4822e-06  5.8470e-06  1.1882e-06  0:00:20  152

  iter  continuity  x-velocity  y-velocity  z-velocity      energy           k       omega     time/iter
  1849  7.3684e-06  1.7101e-05  9.0779e-06  5.8611e-03  5.4060e-06  5.8481e-06  1.1829e-06  0:00:16  151
  1850  7.2624e-06  1.6892e-05  8.9553e-06  5.8826e-03  5.3300e-06  5.8511e-06  1.1775e-06  0:00:13  150
  1851  7.1568e-06  1.6684e-05  8.8331e-06  5.9039e-03  5.2543e-06  5.8640e-06  1.1722e-06  0:00:10  149
  1852  7.0517e-06  1.6476e-05  8.7112e-06  5.9250e-03  5.1789e-06  5.8793e-06  1.1667e-06  0:00:08  148
  1853  6.9469e-06  1.6269e-05  8.5898e-06  5.9459e-03  5.1038e-06  5.8946e-06  1.1611e-06  0:00:06  147
  1854  6.8426e-06  1.6062e-05  8.4687e-06  5.9665e-03  5.0290e-06  5.9118e-06  1.1555e-06  0:00:05  146
  1855  6.7387e-06  1.5856e-05  8.3480e-06  5.9869e-03  4.9546e-06  5.9280e-06  1.1499e-06  0:00:04  145
  1856  6.6352e-06  1.5651e-05  8.2278e-06  6.0069e-03  4.8805e-06  5.9450e-06  1.1445e-06  0:00:03  144
  1857  6.5321e-06  1.5446e-05  8.1079e-06  6.0266e-03  4.8067e-06  5.9627e-06  1.1390e-06  0:00:03  143
  1858  6.4296e-06  1.5242e-05  7.9885e-06  6.0457e-03  4.7332e-06  5.9803e-06  1.1334e-06  0:00:02  142
  1859  6.3274e-06  1.5039e-05  7.8694e-06  6.0643e-03  4.6601e-06  5.9970e-06  1.1278e-06  0:00:02  141

  iter  continuity  x-velocity  y-velocity  z-velocity      energy           k       omega     time/iter
  1860  6.2258e-06  1.4836e-05  7.7508e-06  6.0824e-03  4.5873e-06  6.0142e-06  1.1221e-06  0:00:01  140
  1861  6.1246e-06  1.4634e-05  7.6327e-06  6.1005e-03  4.5149e-06  6.0299e-06  1.1163e-06  0:00:01  139
  1862  6.0239e-06  1.4433e-05  7.5150e-06  6.1187e-03  4.4428e-06  6.0451e-06  1.1107e-06  0:00:28  138
  1863  5.9236e-06  1.4232e-05  7.3977e-06  6.1375e-03  4.3711e-06  6.0592e-06  1.1049e-06  0:00:23  137
  1864  5.8239e-06  1.4032e-05  7.2809e-06  6.1568e-03  4.2998e-06  6.0733e-06  1.0990e-06  0:00:18  136
  1865  5.7246e-06  1.3833e-05  7.1646e-06  6.1768e-03  4.2288e-06  6.0858e-06  1.0930e-06  0:00:14  135
  1866  5.6259e-06  1.3634e-05  7.0488e-06  6.1973e-03  4.1581e-06  6.0967e-06  1.0869e-06  0:00:11  134
  1867  5.5277e-06  1.3436e-05  6.9334e-06  6.2186e-03  4.0879e-06  6.1065e-06  1.0806e-06  0:00:09  133
  1868  5.4300e-06  1.3239e-05  6.8186e-06  6.2404e-03  4.0180e-06  6.1157e-06  1.0743e-06  0:00:07  132
  1869  5.3328e-06  1.3043e-05  6.7043e-06  6.2627e-03  3.9486e-06  6.1244e-06  1.0678e-06  0:00:06  131
  1870  5.2361e-06  1.2848e-05  6.5905e-06  6.2856e-03  3.8795e-06  6.1323e-06  1.0613e-06  0:00:04  130

  iter  continuity  x-velocity  y-velocity  z-velocity      energy           k       omega     time/iter
  1871  5.1400e-06  1.2653e-05  6.4772e-06  6.3089e-03  3.8108e-06  6.1403e-06  1.0547e-06  0:00:04  129
  1872  5.0445e-06  1.2460e-05  6.3645e-06  6.3327e-03  3.7425e-06  6.1474e-06  1.0479e-06  0:00:03  128
  1873  4.9495e-06  1.2267e-05  6.2524e-06  6.3568e-03  3.6747e-06  6.1534e-06  1.0410e-06  0:00:02  127
  1874  4.8550e-06  1.2075e-05  6.1408e-06  6.3811e-03  3.6073e-06  6.1585e-06  1.0339e-06  0:00:02  126
  1875  4.7612e-06  1.1884e-05  6.0298e-06  6.4056e-03  3.5403e-06  6.1626e-06  1.0267e-06  0:00:01  125
  1876  4.6679e-06  1.1694e-05  5.9194e-06  6.4303e-03  3.4737e-06  6.1651e-06  1.0195e-06  0:00:01  124
  1877  4.5753e-06  1.1505e-05  5.8096e-06  6.4553e-03  3.4076e-06  6.1661e-06  1.0122e-06  0:00:01  123
  1878  4.4832e-06  1.1318e-05  5.7005e-06  6.4827e-03  3.3420e-06  6.1656e-06  1.0048e-06  0:00:01  122
  1879  4.3917e-06  1.1131e-05  5.5920e-06  6.5094e-03  3.2768e-06  6.1639e-06  9.9732e-07  0:00:01  121
  1880  4.3009e-06  1.0945e-05  5.4841e-06  6.5354e-03  3.2121e-06  6.1613e-06  9.8973e-07  0:00:24  120
  1881  4.2107e-06  1.0760e-05  5.3769e-06  6.5611e-03  3.1479e-06  6.1581e-06  9.8204e-07  0:00:19  119

  iter  continuity  x-velocity  y-velocity  z-velocity      energy           k       omega     time/iter
  1882  4.1211e-06  1.0577e-05  5.2703e-06  6.5867e-03  3.0842e-06  6.1534e-06  9.7426e-07  0:00:15  118
  1883  4.0322e-06  1.0395e-05  5.1645e-06  6.6126e-03  3.0209e-06  6.1478e-06  9.6636e-07  0:00:12  117
  1884  3.9440e-06  1.0214e-05  5.0593e-06  6.6388e-03  2.9582e-06  6.1412e-06  9.5841e-07  0:00:10  116
  1885  3.8564e-06  1.0034e-05  4.9549e-06  6.6656e-03  2.8960e-06  6.1333e-06  9.5044e-07  0:00:08  115
  1886  3.7695e-06  9.8551e-06  4.8511e-06  6.6929e-03  2.8344e-06  6.1240e-06  9.4239e-07  0:00:06  114
  1887  3.6833e-06  9.6778e-06  4.7481e-06  6.7208e-03  2.7733e-06  6.1134e-06  9.3422e-07  0:00:05  113
  1888  3.5978e-06  9.5018e-06  4.6459e-06  6.7492e-03  2.7127e-06  6.1014e-06  9.2596e-07  0:00:04  112
  1889  3.5131e-06  9.3271e-06  4.5444e-06  6.7781e-03  2.6527e-06  6.0885e-06  9.1760e-07  0:00:03  111
  1890  3.4290e-06  9.1538e-06  4.4437e-06  6.8074e-03  2.5933e-06  6.0742e-06  9.0915e-07  0:00:02  110
  1891  3.3458e-06  8.9818e-06  4.3438e-06  6.8369e-03  2.5345e-06  6.0587e-06  9.0066e-07  0:00:02  109
  1892  3.2632e-06  8.8113e-06  4.2447e-06  6.8665e-03  2.4763e-06  6.0419e-06  8.9209e-07  0:00:02  108

  iter  continuity  x-velocity  y-velocity  z-velocity      energy           k       omega     time/iter
  1893  3.1815e-06  8.6421e-06  4.1464e-06  6.8959e-03  2.4187e-06  6.0238e-06  8.8346e-07  0:00:01  107
  1894  3.1005e-06  8.4745e-06  4.0490e-06  6.9250e-03  2.3617e-06  6.0050e-06  8.7477e-07  0:00:01  106
  1895  3.0204e-06  8.3082e-06  3.9523e-06  6.9536e-03  2.3054e-06  5.9848e-06  8.6600e-07  0:00:01  105
  1896  2.9410e-06  8.1435e-06  3.8566e-06  6.9814e-03  2.2497e-06  5.9635e-06  8.5717e-07  0:00:01  104
  1897  2.8625e-06  7.9803e-06  3.7617e-06  7.0084e-03  2.1946e-06  5.9408e-06  8.4829e-07  0:00:21  103
  1898  2.7849e-06  7.8186e-06  3.6677e-06  7.0344e-03  2.1403e-06  5.9170e-06  8.3933e-07  0:00:17  102
  1899  2.7081e-06  7.6585e-06  3.5747e-06  7.0594e-03  2.0866e-06  5.8919e-06  8.3032e-07  0:00:13  101
  1900  2.6322e-06  7.5000e-06  3.4825e-06  7.0832e-03  2.0336e-06  5.8658e-06  8.2125e-07  0:00:10  100
  1901  2.5572e-06  7.3431e-06  3.3913e-06  7.1059e-03  1.9814e-06  5.8392e-06  8.1214e-07  0:00:08   99
  1902  2.4832e-06  7.1878e-06  3.3011e-06  7.1277e-03  1.9298e-06  5.8115e-06  8.0301e-07  0:00:07   98
  1903  2.4101e-06  7.0341e-06  3.2119e-06  7.1486e-03  1.8790e-06  5.7830e-06  7.9382e-07  0:00:05   97

  iter  continuity  x-velocity  y-velocity  z-velocity      energy           k       omega     time/iter
  1904  2.3379e-06  6.8822e-06  3.1236e-06  7.1689e-03  1.8290e-06  5.7534e-06  7.8457e-07  0:00:04   96
  1905  2.2668e-06  6.7319e-06  3.0365e-06  7.1887e-03  1.7797e-06  5.7228e-06  7.7530e-07  0:00:03   95
  1906  2.1966e-06  6.5834e-06  2.9503e-06  7.2084e-03  1.7312e-06  5.6920e-06  7.6600e-07  0:00:03   94
  1907  2.1276e-06  6.4366e-06  2.8653e-06  7.2282e-03  1.6835e-06  5.6606e-06  7.5665e-07  0:00:02   93
  1908  2.0596e-06  6.2917e-06  2.7814e-06  7.2483e-03  1.6367e-06  5.6284e-06  7.4727e-07  0:00:02   92
  1909  1.9927e-06  6.1485e-06  2.6986e-06  7.2688e-03  1.5907e-06  5.5953e-06  7.3797e-07  0:00:01   91
  1910  1.9270e-06  6.0072e-06  2.6170e-06  7.2897e-03  1.5456e-06  5.5612e-06  7.2874e-07  0:00:01   90
  1911  1.8625e-06  5.8678e-06  2.5366e-06  7.3112e-03  1.5014e-06  5.5261e-06  7.1949e-07  0:00:01   89
  1912  1.7992e-06  5.7303e-06  2.4575e-06  7.3334e-03  1.4582e-06  5.4902e-06  7.1025e-07  0:00:01   88
  1913  1.7373e-06  5.5947e-06  2.3796e-06  7.3562e-03  1.4159e-06  5.4534e-06  7.0101e-07  0:00:01   87
  1914  1.6766e-06  5.4612e-06  2.3031e-06  7.3797e-03  1.3746e-06  5.4157e-06  6.9173e-07  0:00:18   86

  iter  continuity  x-velocity  y-velocity  z-velocity      energy           k       omega     time/iter
  1915  1.6174e-06  5.3297e-06  2.2279e-06  7.4038e-03  1.3344e-06  5.3771e-06  6.8244e-07  0:00:14   85
  1916  1.5597e-06  5.2002e-06  2.1542e-06  7.4284e-03  1.2952e-06  5.3377e-06  6.7315e-07  0:00:11   84
  1917  1.5034e-06  5.0729e-06  2.0820e-06  7.4534e-03  1.2572e-06  5.2976e-06  6.6385e-07  0:00:09   83
  1918  1.4488e-06  4.9478e-06  2.0112e-06  7.4786e-03  1.2203e-06  5.2569e-06  6.5455e-07  0:00:07   82
  1919  1.3958e-06  4.8249e-06  1.9421e-06  7.5038e-03  1.1846e-06  5.2155e-06  6.4526e-07  0:00:05   81
  1920  1.3445e-06  4.7043e-06  1.8746e-06  7.5287e-03  1.1500e-06  5.1733e-06  6.3600e-07  0:00:04   80
  1921  1.2951e-06  4.5861e-06  1.8089e-06  7.5534e-03  1.1168e-06  5.1305e-06  6.2674e-07  0:00:03   79
  1922  1.2476e-06  4.4702e-06  1.7449e-06  7.5774e-03  1.0848e-06  5.0870e-06  6.1748e-07  0:00:03   78
  1923  1.2021e-06  4.3568e-06  1.6829e-06  7.6007e-03  1.0542e-06  5.0431e-06  6.0821e-07  0:00:02   77
  1924  1.1586e-06  4.2459e-06  1.6227e-06  7.6229e-03  1.0249e-06  4.9989e-06  5.9893e-07  0:00:02   76
  1925  1.1174e-06  4.1377e-06  1.5647e-06  7.6440e-03  9.9702e-07  4.9545e-06  5.8965e-07  0:00:01   75

  iter  continuity  x-velocity  y-velocity  z-velocity      energy           k       omega     time/iter
  1926  1.0785e-06  4.0321e-06  1.5088e-06  7.6640e-03  9.7057e-07  4.9099e-06  5.8038e-07  0:00:01   74
  1927  1.0419e-06  3.9293e-06  1.4552e-06  7.6824e-03  9.4558e-07  4.8647e-06  5.7109e-07  0:00:01   73
  1928  1.0079e-06  3.8293e-06  1.4039e-06  7.6993e-03  9.2209e-07  4.8190e-06  5.6180e-07  0:00:01   72
  1929  9.7645e-07  3.7323e-06  1.3551e-06  7.7149e-03  9.0012e-07  4.7727e-06  5.5249e-07  0:00:01   71
  1930  9.4771e-07  3.6382e-06  1.3088e-06  7.7293e-03  8.7968e-07  4.7262e-06  5.4316e-07  0:00:00   70
  1931  9.2175e-07  3.5473e-06  1.2653e-06  7.7430e-03  8.6081e-07  4.6794e-06  5.3381e-07  0:00:00   69
  1932  8.9864e-07  3.4595e-06  1.2247e-06  7.7560e-03  8.4351e-07  4.6321e-06  5.2446e-07  0:00:14   68
  1933  8.7843e-07  3.3751e-06  1.1869e-06  7.7687e-03  8.2779e-07  4.5843e-06  5.1516e-07  0:00:11   67
  1934  8.6115e-07  3.2940e-06  1.1522e-06  7.7812e-03  8.1364e-07  4.5364e-06  5.0599e-07  0:00:09   66
  1935  8.4680e-07  3.2163e-06  1.1207e-06  7.7938e-03  8.0106e-07  4.4880e-06  4.9683e-07  0:00:07   65
  1936  8.3536e-07  3.1421e-06  1.0924e-06  7.8067e-03  7.9003e-07  4.4395e-06  4.8721e-07  0:00:05   64

  iter  continuity  x-velocity  y-velocity  z-velocity      energy           k       omega     time/iter
  1937  8.2676e-07  3.0716e-06  1.0674e-06  7.8203e-03  7.8051e-07  4.3912e-06  4.7741e-07  0:00:04   63
  1938  8.2093e-07  3.0048e-06  1.0457e-06  7.8349e-03  7.7247e-07  4.3425e-06  4.6781e-07  0:00:03   62
  1939  8.1774e-07  2.9417e-06  1.0275e-06  7.8507e-03  7.6586e-07  4.2935e-06  4.5842e-07  0:00:03   61
  1940  8.1705e-07  2.8823e-06  1.0125e-06  7.8679e-03  7.6063e-07  4.2445e-06  4.4914e-07  0:00:02   60
  1941  8.1870e-07  2.8269e-06  1.0009e-06  7.8868e-03  7.5672e-07  4.1952e-06  4.4006e-07  0:00:02   59
  1942  8.2250e-07  2.7753e-06  9.9245e-07  7.9075e-03  7.5405e-07  4.1456e-06  4.3123e-07  0:00:01   58
  1943  8.2828e-07  2.7276e-06  9.8715e-07  7.9300e-03  7.5254e-07  4.0963e-06  4.2275e-07  0:00:01   57
  1944  8.3583e-07  2.6837e-06  9.8482e-07  7.9545e-03  7.5212e-07  4.0474e-06  4.1475e-07  0:00:01   56
  1945  8.4495e-07  2.6438e-06  9.8529e-07  7.9808e-03  7.5271e-07  3.9984e-06  4.0692e-07  0:00:01   55
  1946  8.5545e-07  2.6078e-06  9.8838e-07  8.0089e-03  7.5422e-07  3.9489e-06  3.9923e-07  0:00:00   54
  1947  8.6715e-07  2.5755e-06  9.9388e-07  8.0384e-03  7.5657e-07  3.8989e-06  3.9164e-07  0:00:00   53

  iter  continuity  x-velocity  y-velocity  z-velocity      energy           k       omega     time/iter
  1948  8.7985e-07  2.5470e-06  1.0016e-06  8.0694e-03  7.5966e-07  3.8485e-06  3.8416e-07  0:00:00   52
  1949  8.9340e-07  2.5222e-06  1.0113e-06  8.1014e-03  7.6343e-07  3.7976e-06  3.7683e-07  0:00:00   51
  1950  9.0764e-07  2.5010e-06  1.0227e-06  8.1344e-03  7.6779e-07  3.7467e-06  3.6981e-07  0:00:10   50
  1951  9.2242e-07  2.4832e-06  1.0356e-06  8.1681e-03  7.7267e-07  3.6958e-06  3.6313e-07  0:00:08   49
  1952  9.3761e-07  2.4688e-06  1.0499e-06  8.2022e-03  7.7798e-07  3.6447e-06  3.5668e-07  0:00:06   48
  1953  9.5309e-07  2.4576e-06  1.0654e-06  8.2366e-03  7.8367e-07  3.5938e-06  3.5041e-07  0:00:05   47
  1954  9.6875e-07  2.4494e-06  1.0817e-06  8.2711e-03  7.8966e-07  3.5428e-06  3.4435e-07  0:00:04   46
  1955  9.8449e-07  2.4442e-06  1.0989e-06  8.3055e-03  7.9590e-07  3.4918e-06  3.3848e-07  0:00:03   45
  1956  1.0002e-06  2.4417e-06  1.1166e-06  8.3396e-03  8.0231e-07  3.4411e-06  3.3265e-07  0:00:02   44
  1957  1.0159e-06  2.4417e-06  1.1348e-06  8.3735e-03  8.0886e-07  3.3905e-06  3.2690e-07  0:00:02   43
  1958  1.0313e-06  2.4441e-06  1.1533e-06  8.4070e-03  8.1549e-07  3.3398e-06  3.2132e-07  0:00:01   42

  iter  continuity  x-velocity  y-velocity  z-velocity      energy           k       omega     time/iter
  1959  1.0466e-06  2.4487e-06  1.1719e-06  8.4401e-03  8.2215e-07  3.2893e-06  3.1628e-07  0:00:01   41
  1960  1.0616e-06  2.4552e-06  1.1907e-06  8.4730e-03  8.2880e-07  3.2390e-06  3.1127e-07  0:00:01   40
  1961  1.0762e-06  2.4636e-06  1.2094e-06  8.5055e-03  8.3540e-07  3.1896e-06  3.0632e-07  0:00:01   39
  1962  1.0905e-06  2.4736e-06  1.2280e-06  8.5378e-03  8.4191e-07  3.1404e-06  3.0145e-07  0:00:01   38
  1963  1.1043e-06  2.4851e-06  1.2464e-06  8.5699e-03  8.4831e-07  3.0911e-06  2.9676e-07  0:00:00   37
  1964  1.1177e-06  2.4978e-06  1.2645e-06  8.6019e-03  8.5455e-07  3.0420e-06  2.9212e-07  0:00:00   36
  1965  1.1306e-06  2.5117e-06  1.2823e-06  8.6339e-03  8.6061e-07  2.9929e-06  2.8767e-07  0:00:00   35
  1966  1.1429e-06  2.5265e-06  1.2997e-06  8.6660e-03  8.6648e-07  2.9439e-06  2.8342e-07  0:00:00   34
  1967  1.1547e-06  2.5421e-06  1.3166e-06  8.6983e-03  8.7211e-07  2.8951e-06  2.7937e-07  0:00:07   33
  1968  1.1660e-06  2.5583e-06  1.3330e-06  8.7308e-03  8.7750e-07  2.8469e-06  2.7566e-07  0:00:05   32
  1969  1.1767e-06  2.5750e-06  1.3489e-06  8.7638e-03  8.8263e-07  2.7992e-06  2.7208e-07  0:00:04   31

  iter  continuity  x-velocity  y-velocity  z-velocity      energy           k       omega     time/iter
  1970  1.1868e-06  2.5921e-06  1.3642e-06  8.7971e-03  8.8748e-07  2.7523e-06  2.6859e-07  0:00:03   30
  1971  1.1963e-06  2.6095e-06  1.3789e-06  8.8309e-03  8.9203e-07  2.7058e-06  2.6527e-07  0:00:02   29
  1972  1.2051e-06  2.6270e-06  1.3930e-06  8.8653e-03  8.9629e-07  2.6596e-06  2.6217e-07  0:00:02   28
  1973  1.2134e-06  2.6445e-06  1.4063e-06  8.9002e-03  9.0022e-07  2.6138e-06  2.5916e-07  0:00:01   27
  1974  1.2210e-06  2.6619e-06  1.4191e-06  8.9356e-03  9.0383e-07  2.5681e-06  2.5642e-07  0:00:01   26
  1975  1.2279e-06  2.6792e-06  1.4311e-06  8.9717e-03  9.0711e-07  2.5224e-06  2.5393e-07  0:00:01   25
  1976  1.2342e-06  2.6962e-06  1.4423e-06  9.0083e-03  9.1005e-07  2.4774e-06  2.5153e-07  0:00:01   24
  1977  1.2399e-06  2.7129e-06  1.4529e-06  9.0455e-03  9.1265e-07  2.4329e-06  2.4919e-07  0:00:01   23
  1978  1.2449e-06  2.7293e-06  1.4627e-06  9.0834e-03  9.1491e-07  2.3887e-06  2.4690e-07  0:00:00   22
  1979  1.2493e-06  2.7451e-06  1.4718e-06  9.1217e-03  9.1681e-07  2.3451e-06  2.4498e-07  0:00:00   21
  1980  1.2530e-06  2.7604e-06  1.4801e-06  9.1607e-03  9.1836e-07  2.3016e-06  2.4344e-07  0:00:00   20

  iter  continuity  x-velocity  y-velocity  z-velocity      energy           k       omega     time/iter
  1981  1.2561e-06  2.7752e-06  1.4877e-06  9.2002e-03  9.1955e-07  2.2584e-06  2.4203e-07  0:00:04   19
  1982  1.2586e-06  2.7893e-06  1.4945e-06  9.2402e-03  9.2040e-07  2.2157e-06  2.4074e-07  0:00:03   18
  1983  1.2604e-06  2.8028e-06  1.5005e-06  9.2807e-03  9.2089e-07  2.1741e-06  2.3974e-07  0:00:02   17
  1984  1.2616e-06  2.8156e-06  1.5058e-06  9.3217e-03  9.2102e-07  2.1330e-06  2.3902e-07  0:00:02   16
  1985  1.2621e-06  2.8276e-06  1.5103e-06  9.3633e-03  9.2081e-07  2.0928e-06  2.3847e-07  0:00:01   15
  1986  1.2621e-06  2.8389e-06  1.5140e-06  9.4053e-03  9.2025e-07  2.0543e-06  2.3805e-07  0:00:01   14
  1987  1.2614e-06  2.8493e-06  1.5170e-06  9.4477e-03  9.1935e-07  2.0175e-06  2.3797e-07  0:00:01   13
  1988  1.2601e-06  2.8590e-06  1.5192e-06  9.4906e-03  9.1810e-07  1.9824e-06  2.3816e-07  0:00:01   12
  1989  1.2582e-06  2.8677e-06  1.5206e-06  9.5340e-03  9.1652e-07  1.9488e-06  2.3865e-07  0:00:00   11
  1990  1.2557e-06  2.8757e-06  1.5213e-06  9.5777e-03  9.1461e-07  1.9166e-06  2.3945e-07  0:00:00   10
  1991  1.2526e-06  2.8827e-06  1.5213e-06  9.6220e-03  9.1238e-07  1.8857e-06  2.4054e-07  0:00:00    9

  iter  continuity  x-velocity  y-velocity  z-velocity      energy           k       omega     time/iter
  1992  1.2490e-06  2.8888e-06  1.5205e-06  9.6666e-03  9.0983e-07  1.8571e-06  2.4186e-07  0:00:00    8
  1993  1.2448e-06  2.8941e-06  1.5189e-06  9.7117e-03  9.0697e-07  1.8296e-06  2.4335e-07  0:00:00    7
  1994  1.2400e-06  2.8984e-06  1.5167e-06  9.7571e-03  9.0380e-07  1.8042e-06  2.4500e-07  0:00:00    6
  1995  1.2347e-06  2.9018e-06  1.5137e-06  9.8030e-03  9.0034e-07  1.7794e-06  2.4684e-07  0:00:00    5
  1996  1.2288e-06  2.9043e-06  1.5101e-06  9.8492e-03  8.9659e-07  1.7550e-06  2.4892e-07  0:00:00    4
  1997  1.2225e-06  2.9059e-06  1.5057e-06  9.8957e-03  8.9257e-07  1.7310e-06  2.5105e-07  0:00:00    3
  1998  1.2156e-06  2.9065e-06  1.5007e-06  9.9426e-03  8.8828e-07  1.7075e-06  2.5333e-07  0:00:00    2
  1999  1.2082e-06  2.9063e-06  1.4949e-06  9.9898e-03  8.8373e-07  1.6852e-06  2.5571e-07  0:00:00    1
  2000  1.2004e-06  2.9051e-06  1.4885e-06  1.0037e-02  8.7893e-07  1.6649e-06  2.5807e-07  0:00:00    0

> 
adjoint/                parallel/               server/
define/                 parametric-study/       solve/
display/                plot/                   surface/
exit                    preferences/            turbo-workflow/
file/                   print-license-usage     views/
mesh/                   report/

> /file/write-case-data project1
Fast-loading "C:\PROGRA~1\ANSYSI~1\v231\fluent\fluent23.1.0\\addons\afd\lib\hdfio.bin"
Done.

Writing to Engs-30669:"C:\Users\kebl7595\Desktop\CFD\Runs\Viscous\Mach 0.3\18 degree\project1.cas.h5" in NODE0 mode and compression level 1 ...
       12996 cells,     1 zone  ...
       43722 faces,     8 zones ...
       17864 nodes,     1 zone  ...
  Done.
Done.

Writing to Engs-30669:"C:\Users\kebl7595\Desktop\CFD\Runs\Viscous\Mach 0.3\18 degree\project1.dat.h5" in NODE0 mode and compression level 1 ...
  Writing results.
Done.

> /file/export/ascii "./surface.dat" wing te () no pressure mach-number quit no

Writing "./surface.dat"...

Writing information to ascii file ...
Done.


> /report/forces/wall-forces y -0.30902 0.95106 0 y "Lift"

> /report/forces/wall-forces y 0.95106 0.30902 0 y "Drag"

> /exit

Posting ANSYS Product Improvement Program performance data 
Done.
Auto-Transcript Stop Time:  14:01:52, 21 May 2024 GMT Daylight Time 
Total Transcript Time: 4 Minute 17 Second.
