Auto-Transcript Start Time:  10:09:33, 22 May 2024 GMT Daylight Time 
Current Directory: "C:\Users\kebl7595\Desktop\CFD\Runs\Flap\18 degree"

              Welcome to ANSYS Fluent 2023 R1

              Copyright 1987-2023 ANSYS, Inc. All Rights Reserved.
              Unauthorized use, distribution or duplication is prohibited.
              This product is subject to U.S. laws governing export and re-export.
              For full Legal Notice, see documentation.

Build Time: Nov 28 2022 09:52:02 EST  Build Id: 10208  
 
Connected License Server List:	1055@ansyslic.eng.ox.ac.uk

*********************************************
Info: Your license enables 4-way parallel execution.
For faster simulations, please start the application with the appropriate parallel options.
*********************************************


     --------------------------------------------------------------
     This is an academic version of ANSYS FLUENT. Usage of this product
     license is limited to the terms and conditions specified in your ANSYS
     license form, additional terms section.
     --------------------------------------------------------------
Host spawning Node 0 on machine "Engs-30669" (win64).

------------------------------------------------------------------------------------
ID    Hostname    Core  O.S.         PID    Vendor                                 
------------------------------------------------------------------------------------
n0    Engs-30669  1/32  Windows-x64  38080  13th Gen Intel(R) Core(TM) i9-13900    
host  Engs-30669        Windows-x64  46892  13th Gen Intel(R) Core(TM) i9-13900    

MPI Option Selected: intel
------------------------------------------------------------------------------------

Cleanup script file is C:\\Users\\kebl7595\\Desktop\\CFD\\Runs\\Flap\\18 degree\\cleanup-fluent-Engs-30669-46892.bat

Posting ANSYS Product Improvement Program startup data
Done.

Reading journal file C:/Users/kebl7595/Desktop/CFD/Runs/Flap/18 degree/project1.jou...

> /file/set-batch-options no no no 

> 
define/                 parametric-study/       solve/
display/                plot/                   surface/
exit                    preferences/            switch-to-meshing-mode
file/                   print-license-usage     turbo-workflow/
mesh/                   report/                 views/
parallel/               server/

> /file/import/cgns/mesh  "./project1.cgns"
Engs-30669 has other FLUENT parallel processes running.                       Process affinity not being set.

Importing "./project1.cgns"

Opening library "C:\\PROGRA~1\\ANSYSI~1\\v231\\fluent\\fluent23.1.0\\vki\\win64\\devtools4.4.6.dll"... done.

Read    33000 nodes
   24072 hexahedral cells, zone  1
   17404 quadrilateral wall faces, zone  2.
   63040 quadrilateral interior faces, zone  3.
     474 quadrilateral interface faces, zone  4.

Building...
     mesh
     materials,
     interface,
     domains,
     zones,
	interface-default_subface
	default_interior-1
	default_subface
	default
     parallel,
The automatic selection for flux type has changed to Rhie-Chow: momentum based.

Done.


> 
adjoint/                parallel/               server/
define/                 parametric-study/       solve/
display/                plot/                   surface/
exit                    preferences/            turbo-workflow/
file/                   print-license-usage     views/
mesh/                   report/

> /define/models/solver/density-based-implicit yes

> 
adjoint/                parallel/               server/
define/                 parametric-study/       solve/
display/                plot/                   surface/
exit                    preferences/            turbo-workflow/
file/                   print-license-usage     views/
mesh/                   report/

> /define/models/energy? yes yes invalid command [yes]
yes

> /define/models/viscous/kw-standard? yes

> 
adjoint/                parallel/               server/
define/                 parametric-study/       solve/
display/                plot/                   surface/
exit                    preferences/            turbo-workflow/
file/                   print-license-usage     views/
mesh/                   report/

> /define/materials/change-create air air air is a fluid
yes 
Density
ideal-gas no data required.

no no no no no no

> 
adjoint/                parallel/               server/
define/                 parametric-study/       solve/
display/                plot/                   surface/
exit                    preferences/            turbo-workflow/
file/                   print-license-usage     views/
mesh/                   report/

> /mesh/modify-zones/sep-face-zone-angle 2 90 yes

 8024 faces in contiguous region 0
 441 faces in contiguous region 1
 618 faces in contiguous region 2
 8024 faces in contiguous region 3
 297 faces in contiguous region 4
 Separates zone 2 into 5 zone(s).
Updating new zone information...
   created new zone default_subface:009 from default_subface
   created new zone default_subface:008 from default_subface
   created new zone default_subface:007 from default_subface
   created new zone default_subface:006 from default_subface
done.

> 
adjoint/                parallel/               server/
define/                 parametric-study/       solve/
display/                plot/                   surface/
exit                    preferences/            turbo-workflow/
file/                   print-license-usage     views/
mesh/                   report/

> /define/boundary-conditions/zone-name  6 wing

> /define/boundary-conditions/zone-name  2 sym1

> /define/boundary-conditions/zone-name  8 sym2

> 
adjoint/                parallel/               server/
define/                 parametric-study/       solve/
display/                plot/                   surface/
exit                    preferences/            turbo-workflow/
file/                   print-license-usage     views/
mesh/                   report/

> /define/boundary-conditions/zone-name  7 far1

> /define/boundary-conditions/zone-name 9 far2

> 
adjoint/                parallel/               server/
define/                 parametric-study/       solve/
display/                plot/                   surface/
exit                    preferences/            turbo-workflow/
file/                   print-license-usage     views/
mesh/                   report/

> /define/boundary-conditions/zone-type  7 pressure-far-field

> /define/boundary-conditions/zone-type 9 pressure-far-field

> /define/boundary-conditions/zone-type  2 symmetry

> /define/boundary-conditions/zone-type  8 symmetry

> 
adjoint/                parallel/               server/
define/                 parametric-study/       solve/
display/                plot/                   surface/
exit                    preferences/            turbo-workflow/
file/                   print-license-usage     views/
mesh/                   report/

> /define/boundary-conditions/pressure-far-field (far2 far1)
far1 no 0 no 0.1 no 300 yes no 0.95106 no -0.30902 no 0. no yes 5 0.02

> /define/boundary-conditions/pressure-far-field (far2 far1)
far2 no 0 no 0.1 no 300 yes no 0.95106 no -0.30902 no 0. no yes 5 0.02

> 
adjoint/                parallel/               server/
define/                 parametric-study/       solve/
display/                plot/                   surface/
exit                    preferences/            turbo-workflow/
file/                   print-license-usage     views/
mesh/                   report/

> /solve/initialize/compute-defaults/pressure-far-field (far2 far1)
far1

> /solve/initialize/initialize-flow

> 
adjoint/                parallel/               server/
define/                 parametric-study/       solve/
display/                plot/                   surface/
exit                    preferences/            turbo-workflow/
file/                   print-license-usage     views/
mesh/                   report/

> /solve/monitors/residual/convergence-criteria 1.e-9 1.e-9 1.e-9 1.e-9 1.e-9 1.e-9 1.e-9

> /solve/iterate 2000

  iter  continuity  x-velocity  y-velocity  z-velocity      energy           k       omega     time/iter
     1  1.0000e+00  1.0000e+00  1.0000e+00  1.0000e+00  1.0000e+00  4.5085e-02  4.9095e-02  0:00:00 1999
     2  4.6180e-01  2.5917e-01  2.7072e-01  1.0000e+00  4.6422e-01  3.9888e-02  3.5256e-02  0:33:18 1998
     3  2.0920e-01  1.4662e-01  1.6712e-01  1.0000e+00  2.0948e-01  3.5619e-02  2.9886e-02  0:26:38 1997
     4  1.4824e-01  8.6425e-02  1.1139e-01  9.4394e-01  1.4879e-01  3.2161e-02  2.6726e-02  0:27:57 1996
     5  1.2209e-01  5.9348e-02  8.7475e-02  9.7620e-01  1.2292e-01  2.9329e-02  2.4743e-02  0:22:21 1995
     6  1.0636e-01  4.1909e-02  7.3105e-02  9.3255e-01  1.0716e-01  2.6884e-02  2.3065e-02  0:17:52 1994
     7  9.3308e-02  2.8516e-02  6.2521e-02  9.2982e-01  9.3937e-02  2.4752e-02  2.1572e-02  0:14:17 1993
     8  8.5249e-02  1.9578e-02  5.5499e-02  9.4574e-01  8.5775e-02  2.2914e-02  2.0210e-02  0:18:04 1992
     9  7.8644e-02  1.4828e-02  5.1564e-02  1.0092e+00  7.9110e-02  2.1380e-02  1.8989e-02  0:14:27 1991
    10  7.2395e-02  1.2902e-02  5.0291e-02  1.0293e+00  7.2799e-02  2.0091e-02  1.7940e-02  0:11:33 1990
    11  6.7034e-02  1.2061e-02  5.0940e-02  9.6596e-01  6.7375e-02  1.8982e-02  1.7033e-02  0:09:14 1989

  iter  continuity  x-velocity  y-velocity  z-velocity      energy           k       omega     time/iter
    12  6.2982e-02  1.1388e-02  5.2933e-02  8.5219e-01  6.3273e-02  1.8022e-02  1.6218e-02  0:14:01 1988
    13  6.0634e-02  1.0615e-02  5.5592e-02  8.0397e-01  6.0884e-02  1.7206e-02  1.5466e-02  0:11:12 1987
    14  5.9620e-02  9.8288e-03  5.8754e-02  8.1070e-01  5.9850e-02  1.6488e-02  1.4774e-02  0:08:57 1986
    15  5.9715e-02  9.4671e-03  6.1313e-02  9.0283e-01  5.9929e-02  1.5856e-02  1.4186e-02  0:13:47 1985
    16  6.1005e-02  9.7025e-03  6.3366e-02  9.8548e-01  6.1221e-02  1.5263e-02  1.3666e-02  0:11:01 1984
    17  6.2434e-02  1.0653e-02  6.4255e-02  1.0539e+00  6.2658e-02  1.4734e-02  1.3228e-02  0:08:49 1983
    18  6.3118e-02  1.2043e-02  6.4661e-02  1.1292e+00  6.3350e-02  1.4263e-02  1.2850e-02  0:07:03 1982
    19  6.3945e-02  1.3169e-02  6.4507e-02  1.1879e+00  6.4187e-02  1.3849e-02  1.2507e-02  0:12:14 1981
    20  6.3394e-02  1.4267e-02  6.4093e-02  1.2300e+00  6.3628e-02  1.3489e-02  1.2294e-02  0:09:47 1980
    21  6.0860e-02  1.5302e-02  6.3310e-02  1.2373e+00  6.1073e-02  1.3192e-02  1.1983e-02  0:07:49 1979
    22  5.6252e-02  1.6121e-02  6.1767e-02  1.2231e+00  5.6425e-02  1.2919e-02  1.1730e-02  0:12:51 1978

  iter  continuity  x-velocity  y-velocity  z-velocity      energy           k       omega     time/iter
    23  5.0099e-02  1.6462e-02  6.0392e-02  1.1826e+00  5.0222e-02  1.2702e-02  1.1399e-02  0:10:16 1977
    24  4.3224e-02  1.6324e-02  5.9120e-02  1.1223e+00  4.3298e-02  1.2518e-02  1.1086e-02  0:08:13 1976
    25  3.6624e-02  1.5736e-02  5.7785e-02  1.0482e+00  3.6662e-02  1.2343e-02  1.0862e-02  0:06:34 1975
    26  3.1335e-02  1.4604e-02  5.6570e-02  9.8324e-01  3.1353e-02  1.2172e-02  1.0663e-02  0:11:50 1974
    27  2.7918e-02  1.3144e-02  5.5494e-02  9.3099e-01  2.7933e-02  1.2046e-02  1.0375e-02  0:09:28 1973
    28  2.6284e-02  1.1467e-02  5.4463e-02  8.8888e-01  2.6312e-02  1.1917e-02  1.0038e-02  0:14:08 1972
    29  2.5406e-02  9.6572e-03  5.3529e-02  8.5188e-01  2.5447e-02  1.1804e-02  9.8035e-03  0:11:18 1971
    30  2.5517e-02  8.2470e-03  5.2738e-02  8.1840e-01  2.5568e-02  1.1653e-02  9.5457e-03  0:09:02 1970
    31  2.6103e-02  7.2900e-03  5.1959e-02  7.8624e-01  2.6163e-02  1.1506e-02  9.2559e-03  0:13:47 1969
    32  2.6872e-02  6.5916e-03  5.1154e-02  7.5798e-01  2.6937e-02  1.1374e-02  9.0338e-03  0:11:02 1968
    33  2.7642e-02  5.9959e-03  5.0288e-02  7.3197e-01  2.7708e-02  1.1277e-02  8.8254e-03  0:15:22 1967

  iter  continuity  x-velocity  y-velocity  z-velocity      energy           k       omega     time/iter
    34  2.8182e-02  5.5097e-03  4.9346e-02  7.0592e-01  2.8246e-02  1.1185e-02  8.5947e-03  0:12:18 1966
    35  2.8449e-02  5.0773e-03  4.8289e-02  6.7713e-01  2.8507e-02  1.1089e-02  8.3910e-03  0:09:50 1965
    36  2.8429e-02  4.6730e-03  4.7095e-02  6.4640e-01  2.8477e-02  1.1044e-02  8.2239e-03  0:14:24 1964
    37  2.8173e-02  4.3268e-03  4.5793e-02  6.1143e-01  2.8208e-02  1.0994e-02  8.0740e-03  0:11:31 1963
    38  2.7713e-02  4.0664e-03  4.4385e-02  5.7617e-01  2.7734e-02  1.0948e-02  7.9193e-03  0:09:13 1962
    39  2.7006e-02  3.8875e-03  4.2836e-02  5.4243e-01  2.7011e-02  1.0914e-02  7.7961e-03  0:13:54 1961
    40  2.6339e-02  3.7807e-03  4.1210e-02  5.0943e-01  2.6328e-02  1.0883e-02  7.6884e-03  0:11:07 1960
    41  2.5822e-02  3.7634e-03  3.9551e-02  4.7852e-01  2.5797e-02  1.0839e-02  7.5966e-03  0:15:25 1959
    42  2.5422e-02  3.8244e-03  3.7886e-02  4.5083e-01  2.5385e-02  1.0791e-02  7.5102e-03  0:12:20 1958
    43  2.5104e-02  3.9404e-03  3.6246e-02  4.2800e-01  2.5056e-02  1.0753e-02  7.4783e-03  0:09:51 1957
    44  2.4925e-02  4.0689e-03  3.4677e-02  4.0982e-01  2.4870e-02  1.0703e-02  7.4570e-03  0:14:24 1956

  iter  continuity  x-velocity  y-velocity  z-velocity      energy           k       omega     time/iter
    45  2.4909e-02  4.1789e-03  3.3150e-02  3.9776e-01  2.4852e-02  1.0660e-02  7.4520e-03  0:11:31 1955
    46  2.5005e-02  4.3042e-03  3.1770e-02  3.9413e-01  2.4949e-02  1.0616e-02  7.4254e-03  0:09:12 1954
    47  2.5305e-02  4.4246e-03  3.0545e-02  3.9700e-01  2.5254e-02  1.0592e-02  7.4552e-03  0:13:52 1953
    48  2.5767e-02  4.5853e-03  2.9491e-02  4.0870e-01  2.5726e-02  1.0563e-02  7.4574e-03  0:11:06 1952
    49  2.6491e-02  4.7568e-03  2.8698e-02  4.2173e-01  2.6462e-02  1.0608e-02  7.5471e-03  0:15:22 1951
    50  2.7517e-02  4.9645e-03  2.8255e-02  4.3444e-01  2.7504e-02  1.0635e-02  7.5464e-03  0:12:18 1950
    51  2.8644e-02  5.1601e-03  2.8075e-02  4.5100e-01  2.8647e-02  1.0710e-02  7.5752e-03  0:09:50 1949
    52  2.9727e-02  5.2819e-03  2.8333e-02  4.6887e-01  2.9747e-02  1.0876e-02  7.6006e-03  0:14:21 1948
    53  3.0993e-02  5.4451e-03  2.8810e-02  4.8398e-01  3.1031e-02  1.0906e-02  7.5777e-03  0:11:29 1947
    54  3.2023e-02  5.5150e-03  2.9590e-02  4.9536e-01  3.2078e-02  1.1091e-02  7.5864e-03  0:15:40 1946
    55  3.2764e-02  5.5704e-03  3.0545e-02  5.0771e-01  3.2834e-02  1.1285e-02  7.6012e-03  0:12:31 1945

  iter  continuity  x-velocity  y-velocity  z-velocity      energy           k       omega     time/iter
    56  3.3419e-02  5.5834e-03  3.1551e-02  5.1890e-01  3.3503e-02  1.1295e-02  7.5867e-03  0:10:01 1944
    57  3.4061e-02  5.5529e-03  3.2542e-02  5.3181e-01  3.4156e-02  1.1383e-02  7.5525e-03  0:14:29 1943
    58  3.4235e-02  5.5313e-03  3.3379e-02  5.4024e-01  3.4335e-02  1.1590e-02  7.5763e-03  0:11:35 1942
    59  3.3722e-02  5.3688e-03  3.3903e-02  5.4654e-01  3.3818e-02  1.1807e-02  7.6191e-03  0:15:44 1941
    60  3.2677e-02  5.1677e-03  3.4100e-02  5.4794e-01  3.2761e-02  1.1881e-02  7.6042e-03  0:12:35 1940
    61  3.1709e-02  4.9467e-03  3.4098e-02  5.4765e-01  3.1776e-02  1.1837e-02  7.5357e-03  0:10:03 1939
    62  3.1146e-02  4.6952e-03  3.3953e-02  5.4678e-01  3.1195e-02  1.1983e-02  7.5143e-03  0:14:30 1938
    63  3.0520e-02  4.5080e-03  3.3634e-02  5.4115e-01  3.0552e-02  1.2090e-02  7.5378e-03  0:11:36 1937
    64  2.9855e-02  4.3872e-03  3.3441e-02  5.4007e-01  2.9874e-02  1.2402e-02  7.6069e-03  0:15:43 1936
    65  2.9237e-02  4.2169e-03  3.2831e-02  5.2597e-01  2.9246e-02  1.2454e-02  7.6267e-03  0:12:34 1935
    66  2.8667e-02  4.0114e-03  3.2212e-02  5.1611e-01  2.8669e-02  1.2551e-02  7.6122e-03  0:16:30 1934

  iter  continuity  x-velocity  y-velocity  z-velocity      energy           k       omega     time/iter
    67  2.8218e-02  3.8415e-03  3.1832e-02  5.0122e-01  2.8213e-02  1.2640e-02  7.5775e-03  0:13:12 1933
    68  2.7934e-02  3.7264e-03  3.1467e-02  5.1073e-01  2.7927e-02  1.2744e-02  7.5828e-03  0:10:33 1932
    69  2.7749e-02  3.6676e-03  3.1018e-02  5.5012e-01  2.7740e-02  1.2785e-02  7.6615e-03  0:14:52 1931
    70  2.7528e-02  3.6556e-03  3.0358e-02  5.4644e-01  2.7519e-02  1.3020e-02  7.6938e-03  0:11:53 1930
    71  2.7156e-02  3.6399e-03  2.9450e-02  5.6949e-01  2.7146e-02  1.3136e-02  7.7128e-03  0:15:56 1929
    72  2.6582e-02  3.6135e-03  2.8362e-02  6.3845e-01  2.6570e-02  1.3129e-02  7.7169e-03  0:12:45 1928
    73  2.5799e-02  3.6090e-03  2.7100e-02  1.0785e+00  2.5783e-02  1.3258e-02  7.7132e-03  0:10:11 1927
    74  2.4775e-02  3.7024e-03  2.5729e-02  2.1554e+00  2.4753e-02  1.3338e-02  7.6883e-03  0:14:34 1926
    75  2.3568e-02  3.8412e-03  2.4388e-02  2.6552e+00  2.3539e-02  1.3388e-02  7.6679e-03  0:11:39 1925
    76  2.2281e-02  3.9360e-03  2.3014e-02  2.4462e+00  2.2247e-02  1.3381e-02  7.6296e-03  0:15:44 1924
    77  2.0991e-02  3.9945e-03  2.1656e-02  2.2770e+00  2.0951e-02  1.3414e-02  7.5807e-03  0:12:34 1923

  iter  continuity  x-velocity  y-velocity  z-velocity      energy           k       omega     time/iter
    78  1.9820e-02  4.0239e-03  2.0369e-02  2.4688e+00  1.9776e-02  1.3470e-02  7.5463e-03  0:16:28 1922
    79  1.8782e-02  4.0077e-03  1.9239e-02  2.9093e+00  1.8738e-02  1.3582e-02  7.5198e-03  0:13:10 1921
    80  1.7892e-02  3.9643e-03  1.7981e-02  3.7036e+00  1.7848e-02  1.3696e-02  7.4977e-03  0:10:31 1920
    81  1.7222e-02  3.9524e-03  1.7068e-02  4.4831e+00  1.7182e-02  1.3762e-02  7.4635e-03  0:14:49 1919
    82  1.6795e-02  3.9548e-03  1.6512e-02  4.8606e+00  1.6759e-02  1.3822e-02  7.4165e-03  0:11:51 1918
    83  1.6533e-02  3.9676e-03  1.6263e-02  5.1256e+00  1.6504e-02  1.3870e-02  7.3613e-03  0:15:52 1917
    84  1.6360e-02  3.9999e-03  1.6263e-02  5.4205e+00  1.6338e-02  1.3964e-02  7.3215e-03  0:12:41 1916
    85  1.6246e-02  4.0356e-03  1.6473e-02  5.9408e+00  1.6231e-02  1.4117e-02  7.2725e-03  0:16:31 1915
    86  1.6052e-02  4.0870e-03  1.6822e-02  6.1871e+00  1.6044e-02  1.4237e-02  7.2327e-03  0:13:13 1914
    87  1.5981e-02  4.1452e-03  1.7281e-02  6.0374e+00  1.5979e-02  1.4373e-02  7.1930e-03  0:10:34 1913
    88  1.5829e-02  4.2103e-03  1.7783e-02  5.2318e+00  1.5833e-02  1.4487e-02  7.1471e-03  0:14:49 1912

  iter  continuity  x-velocity  y-velocity  z-velocity      energy           k       omega     time/iter
    89  1.5747e-02  4.2791e-03  1.8273e-02  4.1490e+00  1.5756e-02  1.4611e-02  7.1035e-03  0:11:51 1911
    90  1.5702e-02  4.3496e-03  1.8718e-02  3.4300e+00  1.5713e-02  1.4660e-02  7.0843e-03  0:09:28 1910
    91  1.5679e-02  4.4185e-03  1.9112e-02  3.3045e+00  1.5692e-02  1.4722e-02  7.0992e-03  0:13:56 1909
    92  1.5710e-02  4.4737e-03  1.9454e-02  3.4700e+00  1.5724e-02  1.4835e-02  7.0846e-03  0:11:09 1908
    93  1.5853e-02  4.5171e-03  1.9752e-02  3.7219e+00  1.5868e-02  1.4933e-02  7.0617e-03  0:15:16 1907
    94  1.6139e-02  4.5373e-03  2.0003e-02  3.9660e+00  1.6155e-02  1.5020e-02  7.0361e-03  0:12:12 1906
    95  1.6633e-02  4.5414e-03  2.0229e-02  4.1114e+00  1.6650e-02  1.5139e-02  7.0036e-03  0:09:46 1905
    96  1.7357e-02  4.5256e-03  2.0427e-02  4.2640e+00  1.7377e-02  1.5274e-02  6.9668e-03  0:14:09 1904
    97  1.8329e-02  4.4847e-03  2.0583e-02  4.3228e+00  1.8351e-02  1.5343e-02  6.9586e-03  0:11:19 1903
    98  1.9521e-02  4.4232e-03  2.0698e-02  4.2789e+00  1.9547e-02  1.5443e-02  6.9396e-03  0:15:23 1902
    99  2.0845e-02  4.3649e-03  2.0756e-02  4.2080e+00  2.0874e-02  1.5564e-02  6.8982e-03  0:12:18 1901

  iter  continuity  x-velocity  y-velocity  z-velocity      energy           k       omega     time/iter
   100  2.2262e-02  4.2886e-03  2.0770e-02  4.1797e+00  2.2293e-02  1.5645e-02  6.8585e-03  0:16:10 1900
   101  2.3735e-02  4.2166e-03  2.0731e-02  4.0079e+00  2.3768e-02  1.5680e-02  6.8308e-03  0:12:56 1899
   102  2.5203e-02  4.1550e-03  2.0630e-02  3.8635e+00  2.5239e-02  1.5759e-02  6.7901e-03  0:10:20 1898
   103  2.6597e-02  4.1076e-03  2.0503e-02  3.7132e+00  2.6635e-02  1.5782e-02  6.7611e-03  0:14:35 1897
   104  2.7795e-02  4.0840e-03  2.0346e-02  3.5617e+00  2.7835e-02  1.5814e-02  6.7221e-03  0:11:40 1896
   105  2.8780e-02  4.0998e-03  2.0173e-02  3.4004e+00  2.8822e-02  1.5867e-02  6.6653e-03  0:15:39 1895
   106  2.9429e-02  4.1574e-03  1.9981e-02  3.2407e+00  2.9472e-02  1.5834e-02  6.6231e-03  0:12:31 1894
   107  2.9697e-02  4.2505e-03  1.9790e-02  3.0800e+00  2.9741e-02  1.5774e-02  6.5725e-03  0:16:19 1893
   108  2.9591e-02  4.3912e-03  1.9627e-02  2.9336e+00  2.9635e-02  1.5706e-02  6.5101e-03  0:13:03 1892
   109  2.9105e-02  4.5680e-03  1.9434e-02  2.7930e+00  2.9149e-02  1.5618e-02  6.4653e-03  0:10:26 1891
   110  2.8147e-02  4.7688e-03  1.9186e-02  2.6648e+00  2.8190e-02  1.5564e-02  6.4047e-03  0:14:38 1890

  iter  continuity  x-velocity  y-velocity  z-velocity      energy           k       omega     time/iter
   111  2.6646e-02  4.9855e-03  1.8861e-02  2.5372e+00  2.6686e-02  1.5529e-02  6.3525e-03  0:11:42 1889
   112  2.4673e-02  5.2042e-03  1.8419e-02  2.4110e+00  2.4709e-02  1.5444e-02  6.3075e-03  0:15:39 1888
   113  2.2376e-02  5.3739e-03  1.7842e-02  2.2746e+00  2.2406e-02  1.5373e-02  6.2471e-03  0:12:31 1887
   114  1.9953e-02  5.4766e-03  1.7128e-02  2.1247e+00  1.9976e-02  1.5319e-02  6.1774e-03  0:16:18 1886
   115  1.7535e-02  5.4955e-03  1.6307e-02  1.9846e+00  1.7551e-02  1.5251e-02  6.1093e-03  0:13:02 1885
   116  1.5404e-02  5.4302e-03  1.5430e-02  1.8529e+00  1.5413e-02  1.5167e-02  6.0401e-03  0:10:25 1884
   117  1.3655e-02  5.2913e-03  1.4604e-02  1.7374e+00  1.3656e-02  1.5068e-02  5.9347e-03  0:14:36 1883
   118  1.2413e-02  5.0871e-03  1.3861e-02  1.6311e+00  1.2408e-02  1.4999e-02  5.8270e-03  0:11:41 1882
   119  1.1699e-02  4.8259e-03  1.3237e-02  1.5469e+00  1.1690e-02  1.4922e-02  5.7204e-03  0:15:36 1881
   120  1.1441e-02  4.5335e-03  1.2750e-02  1.4773e+00  1.1430e-02  1.4890e-02  5.6323e-03  0:12:29 1880
   121  1.1565e-02  4.2428e-03  1.2431e-02  1.4185e+00  1.1552e-02  1.4894e-02  5.5636e-03  0:16:14 1879

  iter  continuity  x-velocity  y-velocity  z-velocity      energy           k       omega     time/iter
   122  1.1928e-02  3.9719e-03  1.2281e-02  1.3637e+00  1.1915e-02  1.4894e-02  5.4730e-03  0:12:59 1878
   123  1.2381e-02  3.7238e-03  1.2244e-02  1.3133e+00  1.2368e-02  1.4897e-02  5.4000e-03  0:16:38 1877
   124  1.2780e-02  3.5078e-03  1.2287e-02  1.2652e+00  1.2767e-02  1.4901e-02  5.3269e-03  0:13:18 1876
   125  1.3141e-02  3.3360e-03  1.2398e-02  1.2261e+00  1.3128e-02  1.4941e-02  5.2666e-03  0:16:53 1875
   126  1.3407e-02  3.2198e-03  1.2556e-02  1.1932e+00  1.3393e-02  1.5005e-02  5.2176e-03  0:13:30 1874
   127  1.3574e-02  3.1724e-03  1.2740e-02  1.1683e+00  1.3558e-02  1.5085e-02  5.1651e-03  0:10:48 1873
   128  1.3649e-02  3.1922e-03  1.2960e-02  1.1536e+00  1.3632e-02  1.5177e-02  5.1212e-03  0:14:52 1872
   129  1.3643e-02  3.2492e-03  1.3206e-02  1.1418e+00  1.3624e-02  1.5282e-02  5.0832e-03  0:11:54 1871
   130  1.3633e-02  3.3345e-03  1.3451e-02  1.1214e+00  1.3611e-02  1.5390e-02  5.0621e-03  0:15:45 1870
   131  1.3668e-02  3.4471e-03  1.3705e-02  1.1066e+00  1.3644e-02  1.5466e-02  5.0353e-03  0:12:35 1869
   132  1.3779e-02  3.5819e-03  1.3965e-02  1.1070e+00  1.3752e-02  1.5600e-02  5.0255e-03  0:16:17 1868

  iter  continuity  x-velocity  y-velocity  z-velocity      energy           k       omega     time/iter
   133  1.3961e-02  3.7162e-03  1.4228e-02  1.1224e+00  1.3932e-02  1.5768e-02  5.0250e-03  0:13:02 1867
   134  1.4233e-02  3.8249e-03  1.4477e-02  1.1704e+00  1.4202e-02  1.5979e-02  5.0099e-03  0:16:38 1866
   135  1.4616e-02  3.9132e-03  1.4695e-02  1.2619e+00  1.4584e-02  1.6154e-02  5.0048e-03  0:13:18 1865
   136  1.5057e-02  3.9853e-03  1.4879e-02  1.3980e+00  1.5024e-02  1.6305e-02  5.0271e-03  0:16:51 1864
   137  1.5509e-02  4.0300e-03  1.5022e-02  1.5626e+00  1.5475e-02  1.6422e-02  5.0421e-03  0:13:28 1863
   138  1.5957e-02  4.0646e-03  1.5123e-02  1.7412e+00  1.5923e-02  1.6479e-02  5.0533e-03  0:16:59 1862
   139  1.6371e-02  4.0895e-03  1.5179e-02  1.9170e+00  1.6336e-02  1.6591e-02  5.0838e-03  0:13:35 1861
   140  1.6676e-02  4.0860e-03  1.5200e-02  2.0791e+00  1.6641e-02  1.6748e-02  5.1236e-03  0:17:03 1860
   141  1.6930e-02  4.0726e-03  1.5216e-02  2.2211e+00  1.6895e-02  1.6900e-02  5.1631e-03  0:13:38 1859
   142  1.7125e-02  4.0520e-03  1.5238e-02  2.3341e+00  1.7091e-02  1.7037e-02  5.1983e-03  0:17:06 1858
   143  1.7264e-02  4.0240e-03  1.5261e-02  2.4169e+00  1.7231e-02  1.7170e-02  5.2147e-03  0:13:40 1857

  iter  continuity  x-velocity  y-velocity  z-velocity      energy           k       omega     time/iter
   144  1.7341e-02  3.9983e-03  1.5278e-02  2.4914e+00  1.7309e-02  1.7283e-02  5.2430e-03  0:10:56 1856
   145  1.7383e-02  3.9785e-03  1.5312e-02  2.5051e+00  1.7353e-02  1.7312e-02  5.2333e-03  0:14:55 1855
   146  1.7441e-02  3.9581e-03  1.5359e-02  2.4992e+00  1.7413e-02  1.7238e-02  5.2126e-03  0:11:56 1854
   147  1.7443e-02  3.9381e-03  1.5421e-02  2.4854e+00  1.7418e-02  1.7095e-02  5.2002e-03  0:15:43 1853
   148  1.7476e-02  3.9185e-03  1.5519e-02  2.4735e+00  1.7454e-02  1.6902e-02  5.1890e-03  0:12:34 1852
   149  1.7547e-02  3.9006e-03  1.5593e-02  2.4676e+00  1.7527e-02  1.6817e-02  5.1870e-03  0:16:13 1851
   150  1.7702e-02  3.8934e-03  1.5686e-02  2.4735e+00  1.7685e-02  1.6694e-02  5.2234e-03  0:12:58 1850
   151  1.8082e-02  3.8947e-03  1.5777e-02  2.5015e+00  1.8070e-02  1.6647e-02  5.2277e-03  0:16:32 1849
   152  1.8686e-02  3.9123e-03  1.5852e-02  2.5460e+00  1.8678e-02  1.6594e-02  5.2434e-03  0:13:13 1848
   153  1.9513e-02  3.9342e-03  1.5940e-02  2.5985e+00  1.9509e-02  1.6552e-02  5.2713e-03  0:10:34 1847
   154  2.0544e-02  3.9543e-03  1.6043e-02  2.6457e+00  2.0545e-02  1.6476e-02  5.2877e-03  0:14:36 1846

  iter  continuity  x-velocity  y-velocity  z-velocity      energy           k       omega     time/iter
   155  2.1677e-02  3.9683e-03  1.6108e-02  2.6800e+00  2.1683e-02  1.6363e-02  5.2953e-03  0:11:41 1845
   156  2.2788e-02  3.9963e-03  1.6199e-02  2.6939e+00  2.2798e-02  1.6253e-02  5.3145e-03  0:15:29 1844
   157  2.3866e-02  4.0270e-03  1.6339e-02  2.6641e+00  2.3879e-02  1.6170e-02  5.3484e-03  0:12:23 1843
   158  2.4879e-02  4.0714e-03  1.6512e-02  2.5941e+00  2.4896e-02  1.6040e-02  5.3487e-03  0:16:02 1842
   159  2.5671e-02  4.0918e-03  1.6638e-02  2.5043e+00  2.5690e-02  1.5926e-02  5.3232e-03  0:12:49 1841
   160  2.6060e-02  4.0903e-03  1.6687e-02  2.3876e+00  2.6082e-02  1.5860e-02  5.3368e-03  0:16:23 1840
   161  2.6035e-02  4.0696e-03  1.6650e-02  2.2863e+00  2.6057e-02  1.5798e-02  5.3095e-03  0:13:06 1839
   162  2.5614e-02  4.0587e-03  1.6531e-02  2.1926e+00  2.5636e-02  1.5678e-02  5.2249e-03  0:16:36 1838
   163  2.4861e-02  4.0478e-03  1.6354e-02  2.1123e+00  2.4881e-02  1.5533e-02  5.1496e-03  0:13:16 1837
   164  2.3836e-02  4.0174e-03  1.6109e-02  2.1008e+00  2.3855e-02  1.5334e-02  5.1036e-03  0:10:37 1836
   165  2.2508e-02  3.9728e-03  1.5773e-02  2.0780e+00  2.2524e-02  1.5120e-02  5.0051e-03  0:14:36 1835

  iter  continuity  x-velocity  y-velocity  z-velocity      energy           k       omega     time/iter
   166  2.0934e-02  3.9144e-03  1.5320e-02  2.0906e+00  2.0948e-02  1.4872e-02  4.9365e-03  0:11:41 1834
   167  1.9221e-02  3.8516e-03  1.4855e-02  2.1142e+00  1.9231e-02  1.4632e-02  4.8671e-03  0:15:27 1833
   168  1.7455e-02  3.7823e-03  1.4355e-02  2.1410e+00  1.7462e-02  1.4435e-02  4.8137e-03  0:12:21 1832
   169  1.5739e-02  3.7116e-03  1.3803e-02  2.1960e+00  1.5742e-02  1.4276e-02  4.7220e-03  0:15:59 1831
   170  1.4163e-02  3.6452e-03  1.3288e-02  2.2723e+00  1.4163e-02  1.4095e-02  4.6380e-03  0:12:47 1830
   171  1.2806e-02  3.5910e-03  1.2808e-02  2.3516e+00  1.2803e-02  1.3908e-02  4.5471e-03  0:16:19 1829
   172  1.1750e-02  3.5453e-03  1.2194e-02  2.4377e+00  1.1745e-02  1.3747e-02  4.4837e-03  0:13:03 1828
   173  1.0925e-02  3.5099e-03  1.1745e-02  2.4989e+00  1.0920e-02  1.3593e-02  4.4376e-03  0:16:31 1827
   174  1.0345e-02  3.4918e-03  1.1370e-02  2.5308e+00  1.0340e-02  1.3450e-02  4.3775e-03  0:13:12 1826
   175  1.0041e-02  3.4825e-03  1.1087e-02  2.5429e+00  1.0037e-02  1.3358e-02  4.3201e-03  0:16:39 1825
   176  1.0056e-02  3.4794e-03  1.0876e-02  2.5438e+00  1.0055e-02  1.3207e-02  4.2551e-03  0:13:18 1824

  iter  continuity  x-velocity  y-velocity  z-velocity      energy           k       omega     time/iter
   177  1.0313e-02  3.4856e-03  1.0726e-02  2.5340e+00  1.0315e-02  1.3052e-02  4.2205e-03  0:16:43 1823
   178  1.0695e-02  3.4984e-03  1.0634e-02  2.5018e+00  1.0699e-02  1.2917e-02  4.1628e-03  0:13:22 1822
   179  1.1069e-02  3.5132e-03  1.0589e-02  2.4529e+00  1.1076e-02  1.2811e-02  4.1226e-03  0:16:45 1821
   180  1.1786e-02  3.5356e-03  1.0580e-02  2.3852e+00  1.1795e-02  1.2676e-02  4.0894e-03  0:13:24 1820
   181  1.2471e-02  3.5732e-03  1.0605e-02  2.3181e+00  1.2481e-02  1.2520e-02  4.0586e-03  0:16:47 1819
   182  1.2775e-02  3.6027e-03  1.0674e-02  2.2558e+00  1.2786e-02  1.2351e-02  4.0159e-03  0:13:25 1818
   183  1.3112e-02  3.6315e-03  1.0786e-02  2.1926e+00  1.3122e-02  1.2201e-02  3.9914e-03  0:16:47 1817
   184  1.3509e-02  3.6535e-03  1.0924e-02  2.1255e+00  1.3520e-02  1.2041e-02  3.9628e-03  0:13:25 1816
   185  1.4190e-02  3.6631e-03  1.1075e-02  2.0606e+00  1.4201e-02  1.1871e-02  3.9366e-03  0:16:47 1815
   186  1.5203e-02  3.6570e-03  1.1222e-02  2.0027e+00  1.5217e-02  1.1687e-02  3.9121e-03  0:13:25 1814
   187  1.6602e-02  3.6345e-03  1.1372e-02  1.9477e+00  1.6619e-02  1.1507e-02  3.8981e-03  0:16:46 1813

  iter  continuity  x-velocity  y-velocity  z-velocity      energy           k       omega     time/iter
   188  1.8549e-02  3.5986e-03  1.1515e-02  1.8966e+00  1.8571e-02  1.1317e-02  3.8825e-03  0:13:24 1812
   189  2.1157e-02  3.5569e-03  1.1641e-02  1.8527e+00  2.1184e-02  1.1120e-02  3.8646e-03  0:16:45 1811
   190  2.3228e-02  3.5147e-03  1.1730e-02  1.8075e+00  2.3259e-02  1.0892e-02  3.8576e-03  0:13:24 1810
   191  2.4590e-02  3.4727e-03  1.1771e-02  1.7613e+00  2.4622e-02  1.0685e-02  3.8524e-03  0:16:45 1809
   192  2.6208e-02  3.4300e-03  1.1769e-02  1.7072e+00  2.6243e-02  1.0460e-02  3.8388e-03  0:13:23 1808
   193  2.7872e-02  3.3932e-03  1.1706e-02  1.6527e+00  2.7908e-02  1.0231e-02  3.8261e-03  0:16:44 1807
   194  2.9005e-02  3.3642e-03  1.1590e-02  1.5980e+00  2.9041e-02  1.0037e-02  3.8217e-03  0:13:22 1806
   195  3.0047e-02  3.3432e-03  1.1444e-02  1.5461e+00  3.0084e-02  9.8260e-03  3.8175e-03  0:10:42 1805
   196  3.0854e-02  3.3362e-03  1.1270e-02  1.5020e+00  3.0890e-02  9.6653e-03  3.8162e-03  0:14:34 1804
   197  3.1542e-02  3.3463e-03  1.1093e-02  1.4611e+00  3.1576e-02  9.5444e-03  3.8091e-03  0:11:39 1803
   198  3.2121e-02  3.3554e-03  1.0924e-02  1.4310e+00  3.2155e-02  9.4347e-03  3.7971e-03  0:15:19 1802

  iter  continuity  x-velocity  y-velocity  z-velocity      energy           k       omega     time/iter
   199  3.2312e-02  3.3760e-03  1.0784e-02  1.4206e+00  3.2344e-02  9.3282e-03  3.7853e-03  0:12:15 1801
   200  3.2152e-02  3.3898e-03  1.0686e-02  1.4316e+00  3.2181e-02  9.2326e-03  3.7580e-03  0:15:48 1800
   201  3.1760e-02  3.4115e-03  1.0608e-02  1.4669e+00  3.1787e-02  9.1481e-03  3.7452e-03  0:12:38 1799
   202  3.0681e-02  3.4159e-03  1.0529e-02  1.5220e+00  3.0704e-02  9.0582e-03  3.7187e-03  0:16:05 1798
   203  2.8857e-02  3.4355e-03  1.0414e-02  1.5910e+00  2.8876e-02  8.9694e-03  3.6884e-03  0:12:52 1797
   204  2.6395e-02  3.4709e-03  1.0216e-02  1.6726e+00  2.6409e-02  8.8956e-03  3.6681e-03  0:16:16 1796
   205  2.3510e-02  3.4912e-03  9.9039e-03  1.7209e+00  2.3519e-02  8.8202e-03  3.6285e-03  0:13:01 1795
   206  2.0401e-02  3.5083e-03  9.4503e-03  1.7347e+00  2.0405e-02  8.7304e-03  3.6103e-03  0:16:23 1794
   207  1.7211e-02  3.5010e-03  8.8545e-03  1.7178e+00  1.7211e-02  8.6378e-03  3.5863e-03  0:13:06 1793
   208  1.4195e-02  3.4589e-03  8.1635e-03  1.6767e+00  1.4191e-02  8.5598e-03  3.5524e-03  0:16:27 1792
   209  1.1620e-02  3.3967e-03  7.4421e-03  1.6119e+00  1.1613e-02  8.4775e-03  3.5161e-03  0:13:09 1791

  iter  continuity  x-velocity  y-velocity  z-velocity      energy           k       omega     time/iter
   210  9.7090e-03  3.3306e-03  6.8136e-03  1.5350e+00  9.7001e-03  8.4101e-03  3.4810e-03  0:10:31 1790
   211  8.5487e-03  3.2807e-03  6.3888e-03  1.4643e+00  8.5396e-03  8.3411e-03  3.4545e-03  0:14:22 1789
   212  8.1468e-03  3.2609e-03  6.2412e-03  1.4157e+00  8.1389e-03  8.2678e-03  3.4173e-03  0:11:29 1788
   213  8.3983e-03  3.2813e-03  6.3674e-03  1.3942e+00  8.3924e-03  8.1909e-03  3.3801e-03  0:15:09 1787
   214  9.0575e-03  3.3258e-03  6.6908e-03  1.4041e+00  9.0535e-03  8.0963e-03  3.3469e-03  0:12:06 1786
   215  9.8678e-03  3.3800e-03  7.1035e-03  1.4139e+00  9.8652e-03  8.0066e-03  3.3181e-03  0:15:38 1785
   216  1.0641e-02  3.4650e-03  7.5083e-03  1.4227e+00  1.0639e-02  7.9020e-03  3.2974e-03  0:12:30 1784
   217  1.1197e-02  3.5679e-03  7.8430e-03  1.4266e+00  1.1196e-02  7.7885e-03  3.2789e-03  0:15:56 1783
   218  1.1496e-02  3.6824e-03  8.0721e-03  1.4287e+00  1.1495e-02  7.6777e-03  3.2659e-03  0:12:44 1782
   219  1.1586e-02  3.8024e-03  8.1868e-03  1.4361e+00  1.1585e-02  7.5749e-03  3.2437e-03  0:16:07 1781
   220  1.1557e-02  3.8871e-03  8.1836e-03  1.4498e+00  1.1556e-02  7.4696e-03  3.2271e-03  0:12:54 1780

  iter  continuity  x-velocity  y-velocity  z-velocity      energy           k       omega     time/iter
   221  1.1124e-02  3.9003e-03  7.9932e-03  1.4578e+00  1.1121e-02  7.3587e-03  3.1972e-03  0:16:14 1779
   222  1.0308e-02  3.8974e-03  7.7332e-03  1.4894e+00  1.0303e-02  7.2329e-03  3.1611e-03  0:18:55 1778
   223  9.6737e-03  3.8874e-03  7.5173e-03  1.5320e+00  9.6672e-03  7.1160e-03  3.1205e-03  0:15:07 1777
   224  9.1126e-03  3.8580e-03  7.3409e-03  1.5555e+00  9.1047e-03  7.0049e-03  3.0741e-03  0:18:01 1776
   225  8.6740e-03  3.7749e-03  7.1818e-03  1.5814e+00  8.6649e-03  6.8940e-03  3.0342e-03  0:14:24 1775
   226  8.3353e-03  3.6467e-03  7.0565e-03  1.6201e+00  8.3255e-03  6.7751e-03  2.9973e-03  0:11:31 1774
   227  8.0660e-03  3.5144e-03  6.9757e-03  1.6663e+00  8.0559e-03  6.6576e-03  2.9612e-03  0:15:07 1773
   228  7.8312e-03  3.3652e-03  6.9333e-03  1.6997e+00  7.8209e-03  6.5390e-03  2.9355e-03  0:12:05 1772
   229  7.5989e-03  3.2119e-03  6.9164e-03  1.7295e+00  7.5887e-03  6.4215e-03  2.9051e-03  0:15:34 1771
   230  7.3350e-03  3.0709e-03  6.9154e-03  1.7835e+00  7.3250e-03  6.3022e-03  2.8823e-03  0:12:27 1770
   231  7.0752e-03  2.9325e-03  6.9236e-03  1.8366e+00  7.0653e-03  6.1823e-03  2.8570e-03  0:15:51 1769

  iter  continuity  x-velocity  y-velocity  z-velocity      energy           k       omega     time/iter
   232  6.9901e-03  2.7986e-03  6.9486e-03  1.8735e+00  6.9807e-03  6.0755e-03  2.8329e-03  0:12:40 1768
   233  7.0067e-03  2.6015e-03  6.9794e-03  1.8953e+00  6.9977e-03  5.9656e-03  2.8104e-03  0:16:01 1767
   234  6.8044e-03  2.3813e-03  6.9601e-03  1.8958e+00  6.7957e-03  5.8631e-03  2.7914e-03  0:18:42 1766
   235  6.4547e-03  2.1696e-03  6.9347e-03  1.8914e+00  6.4462e-03  5.7627e-03  2.7682e-03  0:14:57 1765
   236  6.0667e-03  2.0141e-03  6.9223e-03  1.8764e+00  6.0590e-03  5.6686e-03  2.7440e-03  0:17:50 1764
   237  5.6877e-03  1.8827e-03  6.9261e-03  1.8569e+00  5.6811e-03  5.5770e-03  2.7238e-03  0:14:15 1763
   238  5.2735e-03  1.7134e-03  6.9238e-03  1.8340e+00  5.2684e-03  5.4917e-03  2.6979e-03  0:17:16 1762
   239  4.9227e-03  1.5988e-03  6.9378e-03  1.8051e+00  4.9197e-03  5.4080e-03  2.6710e-03  0:13:49 1761
   240  4.7033e-03  1.5523e-03  6.9599e-03  1.7656e+00  4.7021e-03  5.3234e-03  2.6444e-03  0:16:55 1760
   241  4.5747e-03  1.5197e-03  6.9625e-03  1.7124e+00  4.5746e-03  5.2440e-03  2.6182e-03  0:13:31 1759
   242  4.4959e-03  1.4922e-03  6.9164e-03  1.6548e+00  4.4962e-03  5.1680e-03  2.5927e-03  0:16:40 1758

  iter  continuity  x-velocity  y-velocity  z-velocity      energy           k       omega     time/iter
   243  4.4525e-03  1.4699e-03  6.8462e-03  1.6072e+00  4.4523e-03  5.0933e-03  2.5669e-03  0:13:20 1757
   244  4.4523e-03  1.4494e-03  6.7530e-03  1.5648e+00  4.4511e-03  5.0214e-03  2.5393e-03  0:16:31 1756
   245  4.5112e-03  1.4287e-03  6.6421e-03  1.5382e+00  4.5085e-03  4.9505e-03  2.5118e-03  0:13:12 1755
   246  4.6239e-03  1.4095e-03  6.5238e-03  1.5195e+00  4.6195e-03  4.8825e-03  2.4810e-03  0:16:24 1754
   247  4.7914e-03  1.3904e-03  6.4029e-03  1.5178e+00  4.7853e-03  4.8110e-03  2.4480e-03  0:13:07 1753
   248  5.0141e-03  1.3711e-03  6.2828e-03  1.5172e+00  5.0063e-03  4.7420e-03  2.4162e-03  0:16:19 1752
   249  5.2867e-03  1.3508e-03  6.1676e-03  1.5327e+00  5.2772e-03  4.6724e-03  2.3839e-03  0:13:03 1751
   250  5.5988e-03  1.3300e-03  6.0607e-03  1.5782e+00  5.5878e-03  4.6030e-03  2.3492e-03  0:16:16 1750
   251  5.9267e-03  1.3088e-03  5.9655e-03  1.6554e+00  5.9145e-03  4.5388e-03  2.3112e-03  0:18:50 1749
   252  6.2649e-03  1.2883e-03  5.8852e-03  1.7190e+00  6.2515e-03  4.4782e-03  2.2797e-03  0:15:04 1748
   253  6.5964e-03  1.2688e-03  5.8195e-03  1.8237e+00  6.5821e-03  4.4217e-03  2.2441e-03  0:17:52 1747

  iter  continuity  x-velocity  y-velocity  z-velocity      energy           k       omega     time/iter
   254  6.9231e-03  1.2508e-03  5.7661e-03  1.9552e+00  6.9079e-03  4.3650e-03  2.2103e-03  0:14:17 1746
   255  7.2381e-03  1.2347e-03  5.7222e-03  2.1336e+00  7.2221e-03  4.3104e-03  2.1769e-03  0:17:14 1745
   256  7.5409e-03  1.2186e-03  5.6864e-03  2.2581e+00  7.5243e-03  4.2547e-03  2.1437e-03  0:13:47 1744
   257  7.8292e-03  1.2152e-03  5.6555e-03  2.3095e+00  7.8122e-03  4.2027e-03  2.1097e-03  0:16:50 1743
   258  8.0884e-03  1.2248e-03  5.6248e-03  2.3540e+00  8.0710e-03  4.1500e-03  2.0779e-03  0:13:27 1742
   259  8.3122e-03  1.2461e-03  5.5887e-03  2.4040e+00  8.2945e-03  4.0942e-03  2.0454e-03  0:16:34 1741
   260  8.5129e-03  1.2767e-03  5.5510e-03  2.4192e+00  8.4949e-03  4.0373e-03  2.0210e-03  0:13:15 1740
   261  8.6859e-03  1.3236e-03  5.5119e-03  2.3831e+00  8.6676e-03  3.9763e-03  1.9977e-03  0:16:23 1739
   262  8.8344e-03  1.3727e-03  5.4772e-03  2.2712e+00  8.8159e-03  3.9198e-03  1.9846e-03  0:13:06 1738
   263  8.9559e-03  1.4328e-03  5.4464e-03  2.0276e+00  8.9372e-03  3.8621e-03  1.9679e-03  0:16:16 1737
   264  9.0452e-03  1.4855e-03  5.4203e-03  1.8116e+00  9.0264e-03  3.8141e-03  1.9546e-03  0:13:00 1736

  iter  continuity  x-velocity  y-velocity  z-velocity      energy           k       omega     time/iter
   265  9.1030e-03  1.5326e-03  5.3996e-03  1.6769e+00  9.0840e-03  3.7655e-03  1.9498e-03  0:16:11 1735
   266  9.1271e-03  1.5945e-03  5.3793e-03  1.5975e+00  9.1079e-03  3.7201e-03  1.9502e-03  0:12:56 1734
   267  9.0795e-03  1.6618e-03  5.3630e-03  1.5305e+00  9.0604e-03  3.6768e-03  1.9511e-03  0:16:07 1733
   268  9.0065e-03  1.7197e-03  5.3418e-03  1.4854e+00  8.9874e-03  3.6359e-03  1.9624e-03  0:12:53 1732
   269  8.8912e-03  1.7700e-03  5.3380e-03  1.4796e+00  8.8720e-03  3.5986e-03  1.9681e-03  0:16:04 1731
   270  8.7546e-03  1.8189e-03  5.3369e-03  1.5218e+00  8.7354e-03  3.5589e-03  1.9795e-03  0:12:51 1730
   271  8.6004e-03  1.8662e-03  5.3370e-03  1.5829e+00  8.5811e-03  3.5136e-03  1.9964e-03  0:16:02 1729
   272  8.4314e-03  1.9077e-03  5.3362e-03  1.6651e+00  8.4122e-03  3.4725e-03  2.0099e-03  0:12:49 1728
   273  8.2346e-03  1.9443e-03  5.3329e-03  1.7443e+00  8.2154e-03  3.4397e-03  2.0240e-03  0:16:01 1727
   274  8.0160e-03  1.9723e-03  5.3359e-03  1.8375e+00  7.9967e-03  3.4099e-03  2.0420e-03  0:12:48 1726
   275  7.7809e-03  1.9942e-03  5.3428e-03  1.9213e+00  7.7616e-03  3.3807e-03  2.0562e-03  0:15:59 1725

  iter  continuity  x-velocity  y-velocity  z-velocity      energy           k       omega     time/iter
   276  7.5302e-03  2.0103e-03  5.3542e-03  1.9863e+00  7.5108e-03  3.3524e-03  2.0670e-03  0:12:47 1724
   277  7.2706e-03  2.0237e-03  5.3715e-03  2.0306e+00  7.2511e-03  3.3269e-03  2.0736e-03  0:15:58 1723
   278  7.0046e-03  2.0345e-03  5.3929e-03  2.0650e+00  6.9852e-03  3.3054e-03  2.0786e-03  0:12:46 1722
   279  6.7382e-03  2.0424e-03  5.4184e-03  2.0917e+00  6.7188e-03  3.2868e-03  2.0894e-03  0:15:56 1721
   280  6.4747e-03  2.0464e-03  5.4420e-03  2.1016e+00  6.4553e-03  3.2675e-03  2.0866e-03  0:12:45 1720
   281  6.2237e-03  2.0459e-03  5.4655e-03  2.0900e+00  6.2044e-03  3.2466e-03  2.0809e-03  0:15:55 1719
   282  5.9841e-03  2.0438e-03  5.4972e-03  2.0560e+00  5.9650e-03  3.2263e-03  2.0714e-03  0:12:44 1718
   283  5.7653e-03  2.0330e-03  5.5388e-03  2.0057e+00  5.7464e-03  3.2070e-03  2.0680e-03  0:15:54 1717
   284  5.5667e-03  2.0163e-03  5.5888e-03  1.9480e+00  5.5481e-03  3.1866e-03  2.0541e-03  0:12:43 1716
   285  5.3860e-03  1.9949e-03  5.6462e-03  1.8684e+00  5.3678e-03  3.1685e-03  2.0405e-03  0:15:53 1715
   286  5.2222e-03  1.9676e-03  5.7093e-03  1.7784e+00  5.2045e-03  3.1566e-03  2.0252e-03  0:12:42 1714

  iter  continuity  x-velocity  y-velocity  z-velocity      energy           k       omega     time/iter
   287  5.0746e-03  1.9341e-03  5.7766e-03  1.6884e+00  5.0573e-03  3.1497e-03  2.0191e-03  0:15:52 1713
   288  4.9418e-03  1.8924e-03  5.8481e-03  1.6034e+00  4.9250e-03  3.1423e-03  2.0197e-03  0:12:41 1712
   289  4.8201e-03  1.8426e-03  5.9230e-03  1.5229e+00  4.8037e-03  3.1341e-03  2.0120e-03  0:15:51 1711
   290  4.7077e-03  1.7897e-03  6.0017e-03  1.4446e+00  4.6917e-03  3.1252e-03  1.9958e-03  0:12:40 1710
   291  4.6005e-03  1.7357e-03  6.0827e-03  1.3675e+00  4.5850e-03  3.1136e-03  1.9860e-03  0:15:49 1709
   292  4.4977e-03  1.6812e-03  6.1654e-03  1.2890e+00  4.4825e-03  3.1039e-03  1.9698e-03  0:12:39 1708
   293  4.3995e-03  1.6269e-03  6.2470e-03  1.2106e+00  4.3849e-03  3.1005e-03  1.9506e-03  0:15:48 1707
   294  4.3036e-03  1.5728e-03  6.3251e-03  1.1342e+00  4.2894e-03  3.0979e-03  1.9248e-03  0:12:38 1706
   295  4.2097e-03  1.5185e-03  6.4003e-03  1.0610e+00  4.1958e-03  3.0955e-03  1.9076e-03  0:15:47 1705
   296  4.1090e-03  1.4643e-03  6.4702e-03  9.9030e-01  4.0954e-03  3.0977e-03  1.8909e-03  0:12:37 1704
   297  4.0017e-03  1.4110e-03  6.5336e-03  9.2893e-01  3.9882e-03  3.1034e-03  1.8720e-03  0:15:46 1703

  iter  continuity  x-velocity  y-velocity  z-velocity      energy           k       omega     time/iter
   298  3.8891e-03  1.3594e-03  6.5899e-03  8.7479e-01  3.8758e-03  3.1104e-03  1.8695e-03  0:12:36 1702
   299  3.7730e-03  1.3095e-03  6.6383e-03  8.2899e-01  3.7598e-03  3.1162e-03  1.8600e-03  0:15:45 1701
   300  3.6520e-03  1.2618e-03  6.6740e-03  7.9222e-01  3.6388e-03  3.1223e-03  1.8300e-03  0:12:36 1700
   301  3.5275e-03  1.2165e-03  6.7019e-03  7.6706e-01  3.5144e-03  3.1323e-03  1.8017e-03  0:15:44 1699
   302  3.4007e-03  1.1739e-03  6.7213e-03  7.4741e-01  3.3876e-03  3.1408e-03  1.7832e-03  0:12:35 1698
   303  3.2687e-03  1.1345e-03  6.7312e-03  7.3683e-01  3.2557e-03  3.1443e-03  1.7714e-03  0:15:43 1697
   304  3.1323e-03  1.0991e-03  6.7320e-03  7.3153e-01  3.1194e-03  3.1495e-03  1.7681e-03  0:12:34 1696
   305  2.9941e-03  1.0665e-03  6.7228e-03  7.3331e-01  2.9812e-03  3.1566e-03  1.7621e-03  0:15:42 1695
   306  2.8585e-03  1.0366e-03  6.7049e-03  7.3232e-01  2.8457e-03  3.1607e-03  1.7587e-03  0:12:33 1694
   307  2.7248e-03  1.0098e-03  6.6812e-03  7.3083e-01  2.7123e-03  3.1630e-03  1.7558e-03  0:15:41 1693
   308  2.5931e-03  9.8682e-04  6.6504e-03  7.2640e-01  2.5808e-03  3.1628e-03  1.7487e-03  0:12:32 1692

  iter  continuity  x-velocity  y-velocity  z-velocity      energy           k       omega     time/iter
   309  2.4645e-03  9.6783e-04  6.6130e-03  7.1996e-01  2.4527e-03  3.1596e-03  1.7453e-03  0:15:39 1691
   310  2.3410e-03  9.5276e-04  6.5694e-03  7.1166e-01  2.3296e-03  3.1533e-03  1.7395e-03  0:12:31 1690
   311  2.2232e-03  9.4152e-04  6.5202e-03  7.0070e-01  2.2123e-03  3.1472e-03  1.7265e-03  0:15:38 1689
   312  2.1131e-03  9.3391e-04  6.4660e-03  6.8896e-01  2.1029e-03  3.1468e-03  1.7135e-03  0:18:08 1688
   313  2.0143e-03  9.2979e-04  6.4076e-03  6.7817e-01  2.0048e-03  3.1490e-03  1.6986e-03  0:14:30 1687
   314  1.9246e-03  9.2882e-04  6.3458e-03  6.6595e-01  1.9159e-03  3.1509e-03  1.6867e-03  0:17:13 1686
   315  1.8406e-03  9.3070e-04  6.2814e-03  6.5249e-01  1.8328e-03  3.1492e-03  1.6715e-03  0:13:46 1685
   316  1.7684e-03  9.3510e-04  6.2152e-03  6.3987e-01  1.7615e-03  3.1466e-03  1.6573e-03  0:16:37 1684
   317  1.7245e-03  9.4172e-04  6.1476e-03  6.2835e-01  1.7187e-03  3.1447e-03  1.6426e-03  0:13:17 1683
   318  1.7058e-03  9.5007e-04  6.0801e-03  6.1879e-01  1.7011e-03  3.1400e-03  1.6316e-03  0:16:14 1682
   319  1.7096e-03  9.5989e-04  6.0132e-03  6.1173e-01  1.7060e-03  3.1327e-03  1.6199e-03  0:12:58 1681

  iter  continuity  x-velocity  y-velocity  z-velocity      energy           k       omega     time/iter
   320  1.7247e-03  9.7100e-04  5.9475e-03  6.0703e-01  1.7221e-03  3.1256e-03  1.6129e-03  0:15:58 1680
   321  1.7698e-03  9.8321e-04  5.8838e-03  6.0373e-01  1.7681e-03  3.1190e-03  1.6006e-03  0:12:46 1679
   322  1.8338e-03  9.9639e-04  5.8229e-03  6.0198e-01  1.8329e-03  3.1112e-03  1.5896e-03  0:15:48 1678
   323  1.9082e-03  1.0103e-03  5.7658e-03  6.0145e-01  1.9079e-03  3.1030e-03  1.5721e-03  0:12:38 1677
   324  1.9886e-03  1.0247e-03  5.7132e-03  6.0216e-01  1.9887e-03  3.0946e-03  1.5517e-03  0:15:41 1676
   325  2.0694e-03  1.0394e-03  5.6658e-03  6.0340e-01  2.0698e-03  3.0839e-03  1.5340e-03  0:12:33 1675
   326  2.1550e-03  1.0543e-03  5.6243e-03  6.0485e-01  2.1556e-03  3.0720e-03  1.5223e-03  0:15:37 1674
   327  2.2381e-03  1.0692e-03  5.5891e-03  6.0626e-01  2.2388e-03  3.0562e-03  1.5072e-03  0:12:29 1673
   328  2.3239e-03  1.0841e-03  5.5605e-03  6.0750e-01  2.3247e-03  3.0395e-03  1.4949e-03  0:15:33 1672
   329  2.4040e-03  1.0989e-03  5.5385e-03  6.0793e-01  2.4047e-03  3.0251e-03  1.4754e-03  0:12:26 1671
   330  2.4524e-03  1.1142e-03  5.5231e-03  6.0785e-01  2.4529e-03  3.0110e-03  1.4589e-03  0:15:30 1670

  iter  continuity  x-velocity  y-velocity  z-velocity      energy           k       omega     time/iter
   331  2.4840e-03  1.1288e-03  5.5145e-03  6.0673e-01  2.4842e-03  2.9983e-03  1.4489e-03  0:12:24 1669
   332  2.5056e-03  1.1430e-03  5.5136e-03  6.0468e-01  2.5054e-03  2.9867e-03  1.4369e-03  0:15:28 1668
   333  2.5143e-03  1.1569e-03  5.5207e-03  6.0146e-01  2.5137e-03  2.9734e-03  1.4256e-03  0:17:56 1667
   334  2.5111e-03  1.1707e-03  5.5351e-03  5.9722e-01  2.5101e-03  2.9589e-03  1.4122e-03  0:14:20 1666
   335  2.5028e-03  1.1844e-03  5.5576e-03  5.9198e-01  2.5013e-03  2.9436e-03  1.3992e-03  0:11:28 1665
   336  2.4929e-03  1.1979e-03  5.5886e-03  5.8552e-01  2.4909e-03  2.9274e-03  1.3860e-03  0:14:43 1664
   337  2.4833e-03  1.2111e-03  5.6279e-03  5.7820e-01  2.4808e-03  2.9104e-03  1.3765e-03  0:11:46 1663
   338  2.4759e-03  1.2239e-03  5.6753e-03  5.6988e-01  2.4728e-03  2.8926e-03  1.3686e-03  0:14:57 1662
   339  2.4693e-03  1.2362e-03  5.7303e-03  5.6075e-01  2.4658e-03  2.8769e-03  1.3523e-03  0:11:57 1661
   340  2.4660e-03  1.2479e-03  5.7932e-03  5.5085e-01  2.4619e-03  2.8633e-03  1.3416e-03  0:15:05 1660
   341  2.4627e-03  1.2589e-03  5.8640e-03  5.3992e-01  2.4580e-03  2.8538e-03  1.3333e-03  0:12:04 1659

  iter  continuity  x-velocity  y-velocity  z-velocity      energy           k       omega     time/iter
   342  2.4669e-03  1.2693e-03  5.9424e-03  5.2779e-01  2.4617e-03  2.8460e-03  1.3255e-03  0:15:10 1658
   343  2.4818e-03  1.2789e-03  6.0288e-03  5.1504e-01  2.4762e-03  2.8379e-03  1.3193e-03  0:12:08 1657
   344  2.5071e-03  1.2897e-03  6.1175e-03  5.0182e-01  2.5011e-03  2.8297e-03  1.3121e-03  0:15:13 1656
   345  2.5476e-03  1.3003e-03  6.2115e-03  4.8796e-01  2.5412e-03  2.8207e-03  1.3049e-03  0:17:41 1655
   346  2.6042e-03  1.3100e-03  6.3111e-03  4.7417e-01  2.5975e-03  2.8121e-03  1.2935e-03  0:14:08 1654
   347  2.6784e-03  1.3190e-03  6.4154e-03  4.6000e-01  2.6715e-03  2.8041e-03  1.2863e-03  0:16:49 1653
   348  2.7586e-03  1.3272e-03  6.5240e-03  4.4569e-01  2.7516e-03  2.7968e-03  1.2815e-03  0:13:27 1652
   349  2.8488e-03  1.3347e-03  6.6369e-03  4.3208e-01  2.8418e-03  2.7911e-03  1.2791e-03  0:16:15 1651
   350  2.9502e-03  1.3415e-03  6.7541e-03  4.1927e-01  2.9432e-03  2.7860e-03  1.2722e-03  0:13:00 1650
   351  3.0626e-03  1.3476e-03  6.8745e-03  4.0757e-01  3.0557e-03  2.7814e-03  1.2682e-03  0:15:53 1649
   352  3.1850e-03  1.3531e-03  6.9976e-03  3.9691e-01  3.1784e-03  2.7803e-03  1.2643e-03  0:12:42 1648

  iter  continuity  x-velocity  y-velocity  z-velocity      energy           k       omega     time/iter
   353  3.3127e-03  1.3580e-03  7.1233e-03  3.8741e-01  3.3063e-03  2.7803e-03  1.2595e-03  0:15:39 1647
   354  3.4428e-03  1.3625e-03  7.2515e-03  3.7962e-01  3.4367e-03  2.7779e-03  1.2550e-03  0:12:30 1646
   355  3.5579e-03  1.3664e-03  7.3818e-03  3.7355e-01  3.5520e-03  2.7759e-03  1.2486e-03  0:15:29 1645
   356  3.6548e-03  1.3700e-03  7.5134e-03  3.6857e-01  3.6491e-03  2.7766e-03  1.2407e-03  0:12:23 1644
   357  3.7415e-03  1.3733e-03  7.6462e-03  3.6481e-01  3.7360e-03  2.7765e-03  1.2345e-03  0:15:22 1643
   358  3.8167e-03  1.3763e-03  7.7799e-03  3.6251e-01  3.8114e-03  2.7753e-03  1.2262e-03  0:12:17 1642
   359  3.8797e-03  1.3792e-03  7.9143e-03  3.6146e-01  3.8745e-03  2.7746e-03  1.2159e-03  0:15:18 1641
   360  3.9286e-03  1.3820e-03  8.0489e-03  3.6139e-01  3.9236e-03  2.7807e-03  1.2051e-03  0:12:14 1640
   361  3.9728e-03  1.3847e-03  8.1831e-03  3.6225e-01  3.9679e-03  2.7898e-03  1.1999e-03  0:15:15 1639
   362  4.0142e-03  1.3874e-03  8.3170e-03  3.6364e-01  4.0095e-03  2.7952e-03  1.1961e-03  0:12:11 1638
   363  4.0464e-03  1.3903e-03  8.4504e-03  3.6551e-01  4.0418e-03  2.7962e-03  1.1938e-03  0:09:45 1637

  iter  continuity  x-velocity  y-velocity  z-velocity      energy           k       omega     time/iter
   364  4.0645e-03  1.3935e-03  8.5834e-03  3.6769e-01  4.0601e-03  2.7972e-03  1.1903e-03  0:13:15 1636
   365  4.0716e-03  1.3972e-03  8.7162e-03  3.6991e-01  4.0674e-03  2.7912e-03  1.1846e-03  0:10:35 1635
   366  4.0718e-03  1.4016e-03  8.8485e-03  3.7223e-01  4.0677e-03  2.7823e-03  1.1778e-03  0:13:55 1634
   367  4.0607e-03  1.4069e-03  8.9802e-03  3.7446e-01  4.0568e-03  2.7742e-03  1.1705e-03  0:11:07 1633
   368  4.0459e-03  1.4126e-03  9.1109e-03  3.7681e-01  4.0421e-03  2.7703e-03  1.1666e-03  0:14:20 1632
   369  4.0271e-03  1.4191e-03  9.2403e-03  3.7544e-01  4.0234e-03  2.7687e-03  1.1648e-03  0:11:28 1631
   370  4.0031e-03  1.4262e-03  9.3679e-03  3.7381e-01  3.9995e-03  2.7675e-03  1.1656e-03  0:14:36 1630
   371  3.9726e-03  1.4336e-03  9.4937e-03  3.7255e-01  3.9692e-03  2.7722e-03  1.1630e-03  0:11:40 1629
   372  3.9354e-03  1.4413e-03  9.6178e-03  3.7057e-01  3.9321e-03  2.7804e-03  1.1573e-03  0:14:45 1628
   373  3.8917e-03  1.4490e-03  9.7394e-03  3.6844e-01  3.8885e-03  2.7878e-03  1.1580e-03  0:11:48 1627
   374  3.8431e-03  1.4567e-03  9.8578e-03  3.6724e-01  3.8399e-03  2.7949e-03  1.1558e-03  0:14:51 1626

  iter  continuity  x-velocity  y-velocity  z-velocity      energy           k       omega     time/iter
   375  3.7897e-03  1.4640e-03  9.9725e-03  3.6632e-01  3.7867e-03  2.8018e-03  1.1558e-03  0:11:52 1625
   376  3.7317e-03  1.4712e-03  1.0083e-02  3.6454e-01  3.7287e-03  2.8080e-03  1.1519e-03  0:14:54 1624
   377  3.6691e-03  1.4785e-03  1.0189e-02  3.6206e-01  3.6662e-03  2.8145e-03  1.1471e-03  0:11:55 1623
   378  3.6021e-03  1.4857e-03  1.0290e-02  3.5954e-01  3.5993e-03  2.8188e-03  1.1468e-03  0:14:56 1622
   379  3.5305e-03  1.4926e-03  1.0385e-02  3.5755e-01  3.5277e-03  2.8264e-03  1.1388e-03  0:11:56 1621
   380  3.4541e-03  1.4995e-03  1.0476e-02  3.5606e-01  3.4514e-03  2.8332e-03  1.1315e-03  0:14:57 1620
   381  3.3729e-03  1.5069e-03  1.0561e-02  3.5420e-01  3.3702e-03  2.8377e-03  1.1327e-03  0:11:57 1619
   382  3.2866e-03  1.5145e-03  1.0640e-02  3.5225e-01  3.2839e-03  2.8470e-03  1.1370e-03  0:14:57 1618
   383  3.1956e-03  1.5224e-03  1.0715e-02  3.4922e-01  3.1928e-03  2.8586e-03  1.1384e-03  0:11:57 1617
   384  3.0994e-03  1.5306e-03  1.0785e-02  3.4702e-01  3.0967e-03  2.8661e-03  1.1414e-03  0:14:56 1616
   385  2.9977e-03  1.5391e-03  1.0850e-02  3.4549e-01  2.9949e-03  2.8725e-03  1.1459e-03  0:11:57 1615

  iter  continuity  x-velocity  y-velocity  z-velocity      energy           k       omega     time/iter
   386  2.8934e-03  1.5482e-03  1.0912e-02  3.4319e-01  2.8906e-03  2.8836e-03  1.1489e-03  0:14:56 1614
   387  2.7870e-03  1.5576e-03  1.0973e-02  3.4070e-01  2.7840e-03  2.8991e-03  1.1511e-03  0:11:56 1613
   388  2.6733e-03  1.5677e-03  1.1032e-02  3.3863e-01  2.6703e-03  2.9140e-03  1.1504e-03  0:14:55 1612
   389  2.5581e-03  1.5782e-03  1.1091e-02  3.3656e-01  2.5549e-03  2.9326e-03  1.1523e-03  0:11:56 1611
   390  2.4430e-03  1.5892e-03  1.1151e-02  3.3528e-01  2.4397e-03  2.9501e-03  1.1540e-03  0:14:54 1610
   391  2.3299e-03  1.6006e-03  1.1212e-02  3.3497e-01  2.3265e-03  2.9701e-03  1.1555e-03  0:11:55 1609
   392  2.2125e-03  1.6126e-03  1.1274e-02  3.3527e-01  2.2089e-03  2.9913e-03  1.1584e-03  0:14:53 1608
   393  2.1001e-03  1.6249e-03  1.1338e-02  3.3650e-01  2.0963e-03  3.0116e-03  1.1609e-03  0:11:54 1607
   394  1.9972e-03  1.6375e-03  1.1404e-02  3.3793e-01  1.9932e-03  3.0391e-03  1.1664e-03  0:14:52 1606
   395  1.9038e-03  1.6505e-03  1.1471e-02  3.3983e-01  1.8997e-03  3.0730e-03  1.1757e-03  0:11:53 1605
   396  1.8181e-03  1.6637e-03  1.1541e-02  3.4257e-01  1.8139e-03  3.1053e-03  1.1807e-03  0:14:51 1604

  iter  continuity  x-velocity  y-velocity  z-velocity      energy           k       omega     time/iter
   397  1.7380e-03  1.6768e-03  1.1612e-02  3.4602e-01  1.7337e-03  3.1252e-03  1.1860e-03  0:11:52 1603
   398  1.6690e-03  1.6898e-03  1.1685e-02  3.5034e-01  1.6645e-03  3.1307e-03  1.1921e-03  0:14:50 1602
   399  1.6135e-03  1.7027e-03  1.1760e-02  3.5433e-01  1.6091e-03  3.1365e-03  1.1999e-03  0:11:52 1601
   400  1.5722e-03  1.7154e-03  1.1835e-02  3.5693e-01  1.5678e-03  3.1470e-03  1.2074e-03  0:14:49 1600
   401  1.5449e-03  1.7283e-03  1.1911e-02  3.5918e-01  1.5405e-03  3.1572e-03  1.2151e-03  0:11:51 1599
   402  1.5295e-03  1.7414e-03  1.1987e-02  3.6166e-01  1.5252e-03  3.1661e-03  1.2243e-03  0:14:48 1598
   403  1.5282e-03  1.7549e-03  1.2063e-02  3.6669e-01  1.5240e-03  3.1752e-03  1.2284e-03  0:11:50 1597
   404  1.5474e-03  1.7687e-03  1.2140e-02  3.7086e-01  1.5435e-03  3.1961e-03  1.2335e-03  0:14:47 1596
   405  1.5556e-03  1.7827e-03  1.2218e-02  3.7475e-01  1.5518e-03  3.2210e-03  1.2411e-03  0:11:49 1595
   406  1.5709e-03  1.7970e-03  1.2296e-02  3.7843e-01  1.5673e-03  3.2415e-03  1.2454e-03  0:14:46 1594
   407  1.5993e-03  1.8116e-03  1.2375e-02  3.8237e-01  1.5959e-03  3.2597e-03  1.2512e-03  0:11:48 1593

  iter  continuity  x-velocity  y-velocity  z-velocity      energy           k       omega     time/iter
   408  1.6288e-03  1.8265e-03  1.2455e-02  3.8564e-01  1.6255e-03  3.2781e-03  1.2581e-03  0:14:44 1592
   409  1.6594e-03  1.8418e-03  1.2536e-02  3.8874e-01  1.6563e-03  3.2896e-03  1.2619e-03  0:11:47 1591
   410  1.6847e-03  1.8575e-03  1.2617e-02  3.9146e-01  1.6817e-03  3.2986e-03  1.2671e-03  0:14:43 1590
   411  1.7050e-03  1.8738e-03  1.2699e-02  3.9380e-01  1.7020e-03  3.3103e-03  1.2756e-03  0:11:46 1589
   412  1.7192e-03  1.8908e-03  1.2781e-02  3.9501e-01  1.7163e-03  3.3260e-03  1.2827e-03  0:09:25 1588
   413  1.7356e-03  1.9078e-03  1.2861e-02  3.9575e-01  1.7327e-03  3.3387e-03  1.2852e-03  0:12:49 1587
   414  1.7547e-03  1.9247e-03  1.2942e-02  3.9602e-01  1.7518e-03  3.3542e-03  1.2889e-03  0:10:15 1586
   415  1.7751e-03  1.9415e-03  1.3020e-02  3.9651e-01  1.7721e-03  3.3681e-03  1.2956e-03  0:13:28 1585
   416  1.7954e-03  1.9577e-03  1.3096e-02  3.9711e-01  1.7924e-03  3.3788e-03  1.2969e-03  0:10:46 1584
   417  1.8145e-03  1.9735e-03  1.3169e-02  3.9905e-01  1.8115e-03  3.3923e-03  1.2997e-03  0:13:53 1583
   418  1.8298e-03  1.9891e-03  1.3238e-02  4.0033e-01  1.8268e-03  3.4077e-03  1.3002e-03  0:11:06 1582

  iter  continuity  x-velocity  y-velocity  z-velocity      energy           k       omega     time/iter
   419  1.8408e-03  2.0043e-03  1.3303e-02  4.0143e-01  1.8376e-03  3.4186e-03  1.3063e-03  0:14:09 1581
   420  1.8483e-03  2.0190e-03  1.3364e-02  4.0506e-01  1.8450e-03  3.4320e-03  1.3105e-03  0:11:19 1580
   421  1.8516e-03  2.0334e-03  1.3421e-02  4.0457e-01  1.8482e-03  3.4460e-03  1.3100e-03  0:14:18 1579
   422  1.8519e-03  2.0475e-03  1.3473e-02  4.0640e-01  1.8482e-03  3.4600e-03  1.3140e-03  0:11:26 1578
   423  1.8502e-03  2.0616e-03  1.3522e-02  4.0395e-01  1.8463e-03  3.4789e-03  1.3192e-03  0:14:24 1577
   424  1.8460e-03  2.0759e-03  1.3569e-02  4.0417e-01  1.8418e-03  3.4931e-03  1.3255e-03  0:11:31 1576
   425  1.8385e-03  2.0902e-03  1.3613e-02  4.0700e-01  1.8341e-03  3.5086e-03  1.3307e-03  0:14:27 1575
   426  1.8272e-03  2.1047e-03  1.3656e-02  4.1371e-01  1.8225e-03  3.5152e-03  1.3362e-03  0:11:33 1574
   427  1.8125e-03  2.1197e-03  1.3696e-02  4.2137e-01  1.8075e-03  3.5169e-03  1.3418e-03  0:14:29 1573
   428  1.7950e-03  2.1350e-03  1.3736e-02  4.1702e-01  1.7896e-03  3.5166e-03  1.3516e-03  0:11:35 1572
   429  1.7769e-03  2.1499e-03  1.3776e-02  4.2316e-01  1.7713e-03  3.5106e-03  1.3568e-03  0:14:30 1571

  iter  continuity  x-velocity  y-velocity  z-velocity      energy           k       omega     time/iter
   430  1.7604e-03  2.1648e-03  1.3815e-02  4.2996e-01  1.7543e-03  3.4993e-03  1.3622e-03  0:11:35 1570
   431  1.7469e-03  2.1798e-03  1.3854e-02  4.3605e-01  1.7406e-03  3.4827e-03  1.3656e-03  0:14:30 1569
   432  1.7375e-03  2.1947e-03  1.3894e-02  4.4259e-01  1.7309e-03  3.4682e-03  1.3703e-03  0:11:35 1568
   433  1.7322e-03  2.2092e-03  1.3933e-02  4.4786e-01  1.7253e-03  3.4577e-03  1.3730e-03  0:14:29 1567
   434  1.7322e-03  2.2233e-03  1.3971e-02  4.5300e-01  1.7249e-03  3.4541e-03  1.3741e-03  0:11:35 1566
   435  1.7377e-03  2.2369e-03  1.4009e-02  4.5745e-01  1.7303e-03  3.4527e-03  1.3759e-03  0:14:29 1565
   436  1.7484e-03  2.2497e-03  1.4046e-02  4.6284e-01  1.7407e-03  3.4494e-03  1.3809e-03  0:11:34 1564
   437  1.7634e-03  2.2616e-03  1.4082e-02  4.6808e-01  1.7555e-03  3.4473e-03  1.3859e-03  0:14:28 1563
   438  1.7817e-03  2.2725e-03  1.4117e-02  4.7161e-01  1.7737e-03  3.4443e-03  1.3908e-03  0:16:46 1562
   439  1.8029e-03  2.2826e-03  1.4152e-02  4.7468e-01  1.7948e-03  3.4406e-03  1.3955e-03  0:13:24 1561
   440  1.8260e-03  2.2920e-03  1.4186e-02  4.7654e-01  1.8177e-03  3.4453e-03  1.4007e-03  0:15:55 1560

  iter  continuity  x-velocity  y-velocity  z-velocity      energy           k       omega     time/iter
   441  1.8499e-03  2.3008e-03  1.4221e-02  4.7832e-01  1.8415e-03  3.4512e-03  1.4060e-03  0:12:44 1559
   442  1.8738e-03  2.3091e-03  1.4257e-02  4.8076e-01  1.8653e-03  3.4576e-03  1.4141e-03  0:15:22 1558
   443  1.8966e-03  2.3173e-03  1.4292e-02  4.8276e-01  1.8880e-03  3.4636e-03  1.4230e-03  0:12:17 1557
   444  1.9200e-03  2.3252e-03  1.4329e-02  4.8516e-01  1.9113e-03  3.4718e-03  1.4337e-03  0:15:01 1556
   445  1.9449e-03  2.3332e-03  1.4369e-02  4.8613e-01  1.9361e-03  3.4784e-03  1.4455e-03  0:12:00 1555
   446  1.9719e-03  2.3412e-03  1.4410e-02  4.8903e-01  1.9630e-03  3.4861e-03  1.4624e-03  0:14:46 1554
   447  2.0000e-03  2.3494e-03  1.4453e-02  4.9375e-01  1.9910e-03  3.4885e-03  1.4761e-03  0:11:49 1553
   448  2.0280e-03  2.3576e-03  1.4498e-02  4.9858e-01  2.0189e-03  3.4891e-03  1.4870e-03  0:14:37 1552
   449  2.0565e-03  2.3657e-03  1.4544e-02  5.0563e-01  2.0473e-03  3.4908e-03  1.4976e-03  0:11:41 1551
   450  2.0862e-03  2.3737e-03  1.4590e-02  5.1460e-01  2.0769e-03  3.4912e-03  1.5054e-03  0:14:31 1550
   451  2.1184e-03  2.3814e-03  1.4637e-02  5.2458e-01  2.1090e-03  3.4904e-03  1.5135e-03  0:11:36 1549

  iter  continuity  x-velocity  y-velocity  z-velocity      energy           k       omega     time/iter
   452  2.1526e-03  2.3889e-03  1.4684e-02  5.3762e-01  2.1431e-03  3.4939e-03  1.5202e-03  0:14:26 1548
   453  2.1878e-03  2.3960e-03  1.4730e-02  5.5267e-01  2.1782e-03  3.4990e-03  1.5305e-03  0:11:32 1547
   454  2.2256e-03  2.4024e-03  1.4775e-02  5.6806e-01  2.2159e-03  3.5056e-03  1.5379e-03  0:14:23 1546
   455  2.2659e-03  2.4084e-03  1.4819e-02  5.8911e-01  2.2560e-03  3.5102e-03  1.5460e-03  0:11:30 1545
   456  2.3081e-03  2.4137e-03  1.4861e-02  6.0822e-01  2.2981e-03  3.5214e-03  1.5567e-03  0:14:20 1544
   457  2.3513e-03  2.4183e-03  1.4901e-02  6.2598e-01  2.3412e-03  3.5221e-03  1.5676e-03  0:11:28 1543
   458  2.3954e-03  2.4222e-03  1.4939e-02  6.4218e-01  2.3852e-03  3.5213e-03  1.5778e-03  0:14:18 1542
   459  2.4402e-03  2.4255e-03  1.4976e-02  6.5918e-01  2.4298e-03  3.5173e-03  1.5862e-03  0:11:26 1541
   460  2.4858e-03  2.4281e-03  1.5012e-02  6.7344e-01  2.4752e-03  3.5152e-03  1.5996e-03  0:14:17 1540
   461  2.5344e-03  2.4304e-03  1.5048e-02  6.8331e-01  2.5237e-03  3.5125e-03  1.6124e-03  0:11:25 1539
   462  2.5859e-03  2.4321e-03  1.5083e-02  6.8852e-01  2.5751e-03  3.5056e-03  1.6234e-03  0:09:07 1538

  iter  continuity  x-velocity  y-velocity  z-velocity      energy           k       omega     time/iter
   463  2.6406e-03  2.4334e-03  1.5117e-02  6.9062e-01  2.6296e-03  3.5033e-03  1.6340e-03  0:12:25 1537
   464  2.6975e-03  2.4347e-03  1.5152e-02  6.9110e-01  2.6864e-03  3.5004e-03  1.6425e-03  0:09:56 1536
   465  2.7566e-03  2.4361e-03  1.5186e-02  6.9005e-01  2.7454e-03  3.4929e-03  1.6525e-03  0:13:03 1535
   466  2.8172e-03  2.4375e-03  1.5221e-02  6.8564e-01  2.8058e-03  3.4872e-03  1.6610e-03  0:10:26 1534
   467  2.8782e-03  2.4389e-03  1.5255e-02  6.8041e-01  2.8668e-03  3.4779e-03  1.6709e-03  0:13:27 1533
   468  2.9399e-03  2.4406e-03  1.5288e-02  6.7414e-01  2.9283e-03  3.4658e-03  1.6804e-03  0:10:45 1532
   469  3.0035e-03  2.4425e-03  1.5319e-02  6.6819e-01  2.9918e-03  3.4532e-03  1.6888e-03  0:13:42 1531
   470  3.0690e-03  2.4448e-03  1.5350e-02  6.6340e-01  3.0572e-03  3.4461e-03  1.7000e-03  0:10:57 1530
   471  3.1360e-03  2.4473e-03  1.5379e-02  6.5536e-01  3.1242e-03  3.4418e-03  1.7050e-03  0:13:51 1529
   472  3.2043e-03  2.4496e-03  1.5408e-02  6.4860e-01  3.1924e-03  3.4390e-03  1.7091e-03  0:11:05 1528
   473  3.2745e-03  2.4516e-03  1.5436e-02  6.4366e-01  3.2624e-03  3.4307e-03  1.7149e-03  0:13:57 1527

  iter  continuity  x-velocity  y-velocity  z-velocity      energy           k       omega     time/iter
   474  3.3449e-03  2.4536e-03  1.5464e-02  6.4044e-01  3.3328e-03  3.4202e-03  1.7217e-03  0:11:09 1526
   475  3.4156e-03  2.4557e-03  1.5490e-02  6.3632e-01  3.4034e-03  3.4079e-03  1.7256e-03  0:14:00 1525
   476  3.4862e-03  2.4578e-03  1.5515e-02  6.3628e-01  3.4740e-03  3.3997e-03  1.7341e-03  0:11:11 1524
   477  3.5567e-03  2.4595e-03  1.5539e-02  6.3565e-01  3.5444e-03  3.3911e-03  1.7404e-03  0:14:01 1523
   478  3.6254e-03  2.4606e-03  1.5563e-02  6.3677e-01  3.6130e-03  3.3886e-03  1.7480e-03  0:11:13 1522
   479  3.6925e-03  2.4616e-03  1.5586e-02  6.3871e-01  3.6801e-03  3.3826e-03  1.7521e-03  0:14:02 1521
   480  3.7579e-03  2.4624e-03  1.5608e-02  6.4138e-01  3.7454e-03  3.3737e-03  1.7505e-03  0:11:13 1520
   481  3.8205e-03  2.4627e-03  1.5630e-02  6.4061e-01  3.8079e-03  3.3612e-03  1.7578e-03  0:14:02 1519
   482  3.8794e-03  2.4624e-03  1.5650e-02  6.4333e-01  3.8668e-03  3.3506e-03  1.7657e-03  0:11:13 1518
   483  3.9342e-03  2.4623e-03  1.5670e-02  6.4734e-01  3.9215e-03  3.3392e-03  1.7740e-03  0:14:02 1517
   484  3.9870e-03  2.4621e-03  1.5688e-02  6.4824e-01  3.9743e-03  3.3261e-03  1.7762e-03  0:11:13 1516

  iter  continuity  x-velocity  y-velocity  z-velocity      energy           k       omega     time/iter
   485  4.0345e-03  2.4617e-03  1.5705e-02  6.5114e-01  4.0217e-03  3.3167e-03  1.7783e-03  0:14:01 1515
   486  4.0780e-03  2.4615e-03  1.5721e-02  6.5629e-01  4.0652e-03  3.3054e-03  1.7828e-03  0:11:12 1514
   487  4.1171e-03  2.4611e-03  1.5735e-02  6.6078e-01  4.1043e-03  3.2896e-03  1.7877e-03  0:14:00 1513
   488  4.1540e-03  2.4592e-03  1.5747e-02  6.6350e-01  4.1412e-03  3.2770e-03  1.7934e-03  0:11:12 1512
   489  4.1848e-03  2.4572e-03  1.5758e-02  6.6803e-01  4.1719e-03  3.2681e-03  1.8002e-03  0:13:59 1511
   490  4.2109e-03  2.4548e-03  1.5767e-02  6.7072e-01  4.1980e-03  3.2592e-03  1.8081e-03  0:11:11 1510
   491  4.2349e-03  2.4511e-03  1.5775e-02  6.7057e-01  4.2219e-03  3.2482e-03  1.8130e-03  0:13:58 1509
   492  4.2576e-03  2.4472e-03  1.5781e-02  6.7240e-01  4.2445e-03  3.2400e-03  1.8164e-03  0:11:10 1508
   493  4.2797e-03  2.4435e-03  1.5786e-02  6.7345e-01  4.2666e-03  3.2304e-03  1.8167e-03  0:13:57 1507
   494  4.2976e-03  2.4384e-03  1.5789e-02  6.7437e-01  4.2845e-03  3.2184e-03  1.8193e-03  0:11:09 1506
   495  4.3152e-03  2.4334e-03  1.5791e-02  6.7610e-01  4.3021e-03  3.2099e-03  1.8208e-03  0:13:56 1505

  iter  continuity  x-velocity  y-velocity  z-velocity      energy           k       omega     time/iter
   496  4.3350e-03  2.4291e-03  1.5792e-02  6.7648e-01  4.3218e-03  3.2038e-03  1.8184e-03  0:11:08 1504
   497  4.3541e-03  2.4235e-03  1.5791e-02  6.7858e-01  4.3410e-03  3.1998e-03  1.8202e-03  0:13:55 1503
   498  4.3732e-03  2.4188e-03  1.5790e-02  6.8240e-01  4.3600e-03  3.1955e-03  1.8225e-03  0:11:08 1502
   499  4.3933e-03  2.4153e-03  1.5788e-02  6.8462e-01  4.3801e-03  3.1885e-03  1.8231e-03  0:13:54 1501
   500  4.4148e-03  2.4111e-03  1.5786e-02  6.8948e-01  4.4017e-03  3.1772e-03  1.8258e-03  0:11:07 1500
   501  4.4413e-03  2.4083e-03  1.5783e-02  6.9580e-01  4.4281e-03  3.1628e-03  1.8244e-03  0:13:53 1499
   502  4.4691e-03  2.4064e-03  1.5781e-02  6.9789e-01  4.4560e-03  3.1516e-03  1.8218e-03  0:11:06 1498
   503  4.5014e-03  2.4036e-03  1.5778e-02  6.9957e-01  4.4882e-03  3.1359e-03  1.8205e-03  0:13:52 1497
   504  4.5383e-03  2.4026e-03  1.5776e-02  6.9787e-01  4.5251e-03  3.1179e-03  1.8203e-03  0:11:05 1496
   505  4.5788e-03  2.4023e-03  1.5773e-02  6.9612e-01  4.5655e-03  3.1032e-03  1.8182e-03  0:13:51 1495
   506  4.6203e-03  2.4025e-03  1.5771e-02  6.9647e-01  4.6070e-03  3.0865e-03  1.8163e-03  0:11:04 1494

  iter  continuity  x-velocity  y-velocity  z-velocity      energy           k       omega     time/iter
   507  4.6646e-03  2.4044e-03  1.5768e-02  6.9752e-01  4.6513e-03  3.0725e-03  1.8149e-03  0:13:49 1493
   508  4.7050e-03  2.4063e-03  1.5766e-02  7.0109e-01  4.6917e-03  3.0620e-03  1.8123e-03  0:11:03 1492
   509  4.7495e-03  2.4088e-03  1.5763e-02  7.0978e-01  4.7361e-03  3.0555e-03  1.8106e-03  0:13:48 1491
   510  4.7997e-03  2.4115e-03  1.5759e-02  7.1669e-01  4.7863e-03  3.0509e-03  1.8074e-03  0:11:02 1490
   511  4.8490e-03  2.4137e-03  1.5754e-02  7.2122e-01  4.8355e-03  3.0472e-03  1.8032e-03  0:13:47 1489
   512  4.8981e-03  2.4162e-03  1.5749e-02  7.2390e-01  4.8845e-03  3.0393e-03  1.8023e-03  0:11:01 1488
   513  4.9481e-03  2.4186e-03  1.5742e-02  7.2876e-01  4.9344e-03  3.0288e-03  1.8004e-03  0:13:46 1487
   514  4.9969e-03  2.4211e-03  1.5735e-02  7.3842e-01  4.9831e-03  3.0164e-03  1.7961e-03  0:11:00 1486
   515  5.0470e-03  2.4229e-03  1.5726e-02  7.5417e-01  5.0331e-03  3.0042e-03  1.7952e-03  0:13:45 1485
   516  5.0965e-03  2.4232e-03  1.5715e-02  7.7271e-01  5.0824e-03  2.9905e-03  1.7918e-03  0:11:00 1484
   517  5.1468e-03  2.4225e-03  1.5704e-02  7.9702e-01  5.1326e-03  2.9785e-03  1.7877e-03  0:13:44 1483

  iter  continuity  x-velocity  y-velocity  z-velocity      energy           k       omega     time/iter
   518  5.1988e-03  2.4201e-03  1.5692e-02  8.2402e-01  5.1844e-03  2.9735e-03  1.7844e-03  0:10:59 1482
   519  5.2515e-03  2.4155e-03  1.5678e-02  8.4819e-01  5.2369e-03  2.9712e-03  1.7794e-03  0:13:43 1481
   520  5.3063e-03  2.4093e-03  1.5665e-02  8.7179e-01  5.2916e-03  2.9692e-03  1.7744e-03  0:10:58 1480
   521  5.3613e-03  2.4016e-03  1.5650e-02  8.9230e-01  5.3463e-03  2.9677e-03  1.7721e-03  0:13:42 1479
   522  5.4176e-03  2.3931e-03  1.5637e-02  9.1792e-01  5.4024e-03  2.9624e-03  1.7672e-03  0:10:57 1478
   523  5.4735e-03  2.3849e-03  1.5623e-02  9.4157e-01  5.4581e-03  2.9568e-03  1.7614e-03  0:13:41 1477
   524  5.5286e-03  2.3771e-03  1.5610e-02  9.5686e-01  5.5130e-03  2.9489e-03  1.7542e-03  0:10:56 1476
   525  5.5834e-03  2.3707e-03  1.5599e-02  9.7174e-01  5.5676e-03  2.9429e-03  1.7486e-03  0:13:39 1475
   526  5.6353e-03  2.3651e-03  1.5588e-02  9.8664e-01  5.6193e-03  2.9379e-03  1.7423e-03  0:10:55 1474
   527  5.6870e-03  2.3604e-03  1.5580e-02  9.9814e-01  5.6708e-03  2.9325e-03  1.7377e-03  0:13:38 1473
   528  5.7379e-03  2.3567e-03  1.5572e-02  1.0089e+00  5.7215e-03  2.9299e-03  1.7342e-03  0:10:54 1472

  iter  continuity  x-velocity  y-velocity  z-velocity      energy           k       omega     time/iter
   529  5.7878e-03  2.3532e-03  1.5566e-02  1.0221e+00  5.7711e-03  2.9255e-03  1.7318e-03  0:13:37 1471
   530  5.8368e-03  2.3511e-03  1.5561e-02  1.0459e+00  5.8200e-03  2.9196e-03  1.7298e-03  0:10:53 1470
   531  5.8833e-03  2.3486e-03  1.5554e-02  1.0733e+00  5.8662e-03  2.9166e-03  1.7241e-03  0:13:36 1469
   532  5.9290e-03  2.3471e-03  1.5549e-02  1.1079e+00  5.9117e-03  2.9163e-03  1.7209e-03  0:10:52 1468
   533  5.9721e-03  2.3460e-03  1.5545e-02  1.1256e+00  5.9546e-03  2.9155e-03  1.7154e-03  0:13:35 1467
   534  6.0146e-03  2.3449e-03  1.5540e-02  1.1446e+00  5.9969e-03  2.9152e-03  1.7091e-03  0:10:52 1466
   535  6.0544e-03  2.3449e-03  1.5536e-02  1.1726e+00  6.0365e-03  2.9148e-03  1.7036e-03  0:13:34 1465
   536  6.0926e-03  2.3444e-03  1.5531e-02  1.2067e+00  6.0746e-03  2.9114e-03  1.6997e-03  0:10:51 1464
   537  6.1295e-03  2.3445e-03  1.5526e-02  1.2460e+00  6.1112e-03  2.9080e-03  1.6957e-03  0:13:33 1463
   538  6.1620e-03  2.3454e-03  1.5520e-02  1.2957e+00  6.1435e-03  2.9063e-03  1.6921e-03  0:10:50 1462
   539  6.1901e-03  2.3456e-03  1.5514e-02  1.3455e+00  6.1715e-03  2.9074e-03  1.6870e-03  0:13:32 1461

  iter  continuity  x-velocity  y-velocity  z-velocity      energy           k       omega     time/iter
   540  6.2176e-03  2.3467e-03  1.5506e-02  1.3888e+00  6.1988e-03  2.9084e-03  1.6821e-03  0:10:49 1460
   541  6.2427e-03  2.3467e-03  1.5496e-02  1.4230e+00  6.2238e-03  2.9085e-03  1.6798e-03  0:13:31 1459
   542  6.2679e-03  2.3467e-03  1.5485e-02  1.4479e+00  6.2489e-03  2.9083e-03  1.6758e-03  0:10:48 1458
   543  6.2865e-03  2.3466e-03  1.5474e-02  1.4709e+00  6.2673e-03  2.9065e-03  1.6707e-03  0:08:38 1457
   544  6.3007e-03  2.3456e-03  1.5461e-02  1.4891e+00  6.2814e-03  2.9065e-03  1.6639e-03  0:11:45 1456
   545  6.3107e-03  2.3451e-03  1.5449e-02  1.4909e+00  6.2914e-03  2.9079e-03  1.6589e-03  0:09:24 1455
   546  6.3171e-03  2.3436e-03  1.5436e-02  1.4854e+00  6.2976e-03  2.9101e-03  1.6528e-03  0:12:22 1454
   547  6.3252e-03  2.3417e-03  1.5423e-02  1.4738e+00  6.3056e-03  2.9120e-03  1.6484e-03  0:09:53 1453
   548  6.3341e-03  2.3400e-03  1.5409e-02  1.4634e+00  6.3144e-03  2.9139e-03  1.6425e-03  0:12:44 1452
   549  6.3471e-03  2.3372e-03  1.5396e-02  1.4585e+00  6.3272e-03  2.9167e-03  1.6381e-03  0:10:11 1451
   550  6.3635e-03  2.3332e-03  1.5383e-02  1.4544e+00  6.3435e-03  2.9186e-03  1.6317e-03  0:12:59 1450

  iter  continuity  x-velocity  y-velocity  z-velocity      energy           k       omega     time/iter
   551  6.3866e-03  2.3285e-03  1.5371e-02  1.4548e+00  6.3665e-03  2.9188e-03  1.6270e-03  0:10:22 1449
   552  6.4143e-03  2.3229e-03  1.5360e-02  1.5158e+00  6.3939e-03  2.9189e-03  1.6226e-03  0:13:07 1448
   553  6.4399e-03  2.3170e-03  1.5349e-02  1.5975e+00  6.4193e-03  2.9202e-03  1.6151e-03  0:10:29 1447
   554  6.4617e-03  2.3106e-03  1.5340e-02  1.6572e+00  6.4411e-03  2.9232e-03  1.6098e-03  0:13:12 1446
   555  6.4772e-03  2.3043e-03  1.5331e-02  1.7135e+00  6.4564e-03  2.9265e-03  1.6009e-03  0:10:33 1445
   556  6.4842e-03  2.2972e-03  1.5325e-02  1.7438e+00  6.4634e-03  2.9305e-03  1.5950e-03  0:13:15 1444
   557  6.4841e-03  2.2898e-03  1.5316e-02  1.7683e+00  6.4632e-03  2.9347e-03  1.5876e-03  0:10:36 1443
   558  6.4787e-03  2.2824e-03  1.5308e-02  1.8191e+00  6.4577e-03  2.9371e-03  1.5817e-03  0:13:17 1442
   559  6.4629e-03  2.2744e-03  1.5298e-02  1.8599e+00  6.4419e-03  2.9393e-03  1.5752e-03  0:10:37 1441
   560  6.4428e-03  2.2662e-03  1.5290e-02  1.9150e+00  6.4218e-03  2.9414e-03  1.5675e-03  0:13:17 1440
   561  6.4157e-03  2.2577e-03  1.5279e-02  1.9410e+00  6.3947e-03  2.9443e-03  1.5622e-03  0:10:37 1439

  iter  continuity  x-velocity  y-velocity  z-velocity      energy           k       omega     time/iter
   562  6.3841e-03  2.2489e-03  1.5269e-02  1.9558e+00  6.3632e-03  2.9476e-03  1.5532e-03  0:13:17 1438
   563  6.3504e-03  2.2401e-03  1.5259e-02  2.0005e+00  6.3295e-03  2.9505e-03  1.5471e-03  0:10:37 1437
   564  6.3097e-03  2.2314e-03  1.5245e-02  2.0420e+00  6.2889e-03  2.9536e-03  1.5387e-03  0:13:17 1436
   565  6.2709e-03  2.2232e-03  1.5234e-02  2.1100e+00  6.2502e-03  2.9548e-03  1.5314e-03  0:10:37 1435
   566  6.2306e-03  2.2147e-03  1.5220e-02  2.1589e+00  6.2100e-03  2.9541e-03  1.5242e-03  0:13:16 1434
   567  6.1879e-03  2.2067e-03  1.5205e-02  2.2137e+00  6.1673e-03  2.9543e-03  1.5158e-03  0:10:36 1433
   568  6.1474e-03  2.1990e-03  1.5189e-02  2.2549e+00  6.1269e-03  2.9546e-03  1.5097e-03  0:13:15 1432
   569  6.1053e-03  2.1907e-03  1.5171e-02  2.2651e+00  6.0849e-03  2.9529e-03  1.5030e-03  0:10:36 1431
   570  6.0649e-03  2.1830e-03  1.5155e-02  2.2444e+00  6.0447e-03  2.9531e-03  1.4973e-03  0:08:28 1430
   571  6.0271e-03  2.1755e-03  1.5139e-02  2.2093e+00  6.0069e-03  2.9531e-03  1.4925e-03  0:11:32 1429
   572  5.9911e-03  2.1680e-03  1.5123e-02  2.1612e+00  5.9710e-03  2.9535e-03  1.4857e-03  0:09:13 1428

  iter  continuity  x-velocity  y-velocity  z-velocity      energy           k       omega     time/iter
   573  5.9591e-03  2.1613e-03  1.5108e-02  2.1030e+00  5.9391e-03  2.9547e-03  1.4811e-03  0:12:08 1427
   574  5.9278e-03  2.1545e-03  1.5092e-02  2.0515e+00  5.9078e-03  2.9553e-03  1.4766e-03  0:09:42 1426
   575  5.8998e-03  2.1481e-03  1.5076e-02  2.0060e+00  5.8798e-03  2.9554e-03  1.4708e-03  0:12:30 1425
   576  5.8746e-03  2.1418e-03  1.5062e-02  1.9823e+00  5.8546e-03  2.9551e-03  1.4679e-03  0:10:00 1424
   577  5.8508e-03  2.1351e-03  1.5046e-02  1.9588e+00  5.8307e-03  2.9539e-03  1.4640e-03  0:12:44 1423
   578  5.8389e-03  2.1290e-03  1.5032e-02  1.9207e+00  5.8189e-03  2.9533e-03  1.4616e-03  0:10:11 1422
   579  5.8321e-03  2.1230e-03  1.5020e-02  1.8820e+00  5.8121e-03  2.9532e-03  1.4603e-03  0:12:52 1421
   580  5.8271e-03  2.1168e-03  1.5007e-02  1.8436e+00  5.8071e-03  2.9523e-03  1.4583e-03  0:10:18 1420
   581  5.8303e-03  2.1113e-03  1.4995e-02  1.8001e+00  5.8103e-03  2.9511e-03  1.4567e-03  0:12:57 1419
   582  5.8344e-03  2.1062e-03  1.4984e-02  1.7621e+00  5.8144e-03  2.9519e-03  1.4557e-03  0:10:22 1418
   583  5.8388e-03  2.1004e-03  1.4972e-02  1.7392e+00  5.8188e-03  2.9521e-03  1.4540e-03  0:13:00 1417

  iter  continuity  x-velocity  y-velocity  z-velocity      energy           k       omega     time/iter
   584  5.8466e-03  2.0948e-03  1.4960e-02  1.7197e+00  5.8265e-03  2.9516e-03  1.4521e-03  0:10:24 1416
   585  5.8542e-03  2.0895e-03  1.4949e-02  1.7145e+00  5.8342e-03  2.9502e-03  1.4519e-03  0:13:02 1415
   586  5.8607e-03  2.0838e-03  1.4939e-02  1.7295e+00  5.8407e-03  2.9490e-03  1.4488e-03  0:10:25 1414
   587  5.8744e-03  2.0783e-03  1.4929e-02  1.7468e+00  5.8543e-03  2.9471e-03  1.4459e-03  0:13:02 1413
   588  5.8855e-03  2.0729e-03  1.4919e-02  1.7675e+00  5.8656e-03  2.9464e-03  1.4438e-03  0:10:25 1412
   589  5.8925e-03  2.0677e-03  1.4909e-02  1.8030e+00  5.8726e-03  2.9474e-03  1.4392e-03  0:13:02 1411
   590  5.8971e-03  2.0626e-03  1.4898e-02  1.8469e+00  5.8772e-03  2.9480e-03  1.4349e-03  0:10:25 1410
   591  5.8992e-03  2.0581e-03  1.4887e-02  1.9015e+00  5.8794e-03  2.9486e-03  1.4325e-03  0:13:02 1409
   592  5.8963e-03  2.0547e-03  1.4875e-02  1.9718e+00  5.8766e-03  2.9497e-03  1.4312e-03  0:10:25 1408
   593  5.8917e-03  2.0516e-03  1.4861e-02  2.0557e+00  5.8720e-03  2.9500e-03  1.4295e-03  0:13:01 1407
   594  5.8846e-03  2.0502e-03  1.4847e-02  2.1391e+00  5.8650e-03  2.9487e-03  1.4271e-03  0:10:24 1406

  iter  continuity  x-velocity  y-velocity  z-velocity      energy           k       omega     time/iter
   595  5.8699e-03  2.0496e-03  1.4830e-02  2.2286e+00  5.8504e-03  2.9468e-03  1.4261e-03  0:13:00 1405
   596  5.8410e-03  2.0501e-03  1.4811e-02  2.3167e+00  5.8218e-03  2.9464e-03  1.4227e-03  0:10:24 1404
   597  5.8135e-03  2.0520e-03  1.4792e-02  2.4011e+00  5.7944e-03  2.9443e-03  1.4208e-03  0:12:59 1403
   598  5.7814e-03  2.0545e-03  1.4770e-02  2.4830e+00  5.7625e-03  2.9408e-03  1.4193e-03  0:10:23 1402
   599  5.7419e-03  2.0585e-03  1.4747e-02  2.5621e+00  5.7232e-03  2.9378e-03  1.4175e-03  0:12:58 1401
   600  5.6976e-03  2.0629e-03  1.4724e-02  2.6315e+00  5.6792e-03  2.9331e-03  1.4156e-03  0:10:22 1400
   601  5.6497e-03  2.0675e-03  1.4701e-02  2.6959e+00  5.6316e-03  2.9280e-03  1.4135e-03  0:12:57 1399
   602  5.5974e-03  2.0721e-03  1.4675e-02  2.7608e+00  5.5796e-03  2.9221e-03  1.4109e-03  0:10:21 1398
   603  5.5412e-03  2.0780e-03  1.4645e-02  2.8102e+00  5.5238e-03  2.9156e-03  1.4074e-03  0:12:56 1397
   604  5.4812e-03  2.0847e-03  1.4612e-02  2.8459e+00  5.4642e-03  2.9083e-03  1.4049e-03  0:10:20 1396
   605  5.4179e-03  2.0929e-03  1.4574e-02  2.8767e+00  5.4012e-03  2.9015e-03  1.4018e-03  0:12:55 1395

  iter  continuity  x-velocity  y-velocity  z-velocity      energy           k       omega     time/iter
   606  5.3532e-03  2.1035e-03  1.4529e-02  2.9033e+00  5.3368e-03  2.8947e-03  1.3993e-03  0:10:20 1394
   607  5.2802e-03  2.1178e-03  1.4475e-02  2.9278e+00  5.2642e-03  2.8879e-03  1.3977e-03  0:12:54 1393
   608  5.2146e-03  2.1369e-03  1.4415e-02  2.9362e+00  5.1990e-03  2.8818e-03  1.3979e-03  0:10:19 1392
   609  5.1456e-03  2.1608e-03  1.4349e-02  2.9334e+00  5.1303e-03  2.8762e-03  1.3980e-03  0:12:53 1391
   610  5.0722e-03  2.1897e-03  1.4285e-02  2.9280e+00  5.0572e-03  2.8704e-03  1.3991e-03  0:10:18 1390
   611  4.9962e-03  2.2234e-03  1.4220e-02  2.9251e+00  4.9816e-03  2.8644e-03  1.4007e-03  0:12:52 1389
   612  4.9195e-03  2.2622e-03  1.4150e-02  2.9209e+00  4.9052e-03  2.8590e-03  1.4014e-03  0:10:17 1388
   613  4.8432e-03  2.3061e-03  1.4076e-02  2.9048e+00  4.8293e-03  2.8526e-03  1.4022e-03  0:12:51 1387
   614  4.7665e-03  2.3562e-03  1.4004e-02  2.8752e+00  4.7529e-03  2.8454e-03  1.4031e-03  0:10:16 1386
   615  4.6919e-03  2.4091e-03  1.3938e-02  2.8211e+00  4.6787e-03  2.8379e-03  1.4048e-03  0:12:49 1385
   616  4.6159e-03  2.4652e-03  1.3881e-02  2.7790e+00  4.6030e-03  2.8297e-03  1.4088e-03  0:10:15 1384

  iter  continuity  x-velocity  y-velocity  z-velocity      energy           k       omega     time/iter
   617  4.5445e-03  2.5238e-03  1.3833e-02  2.7266e+00  4.5320e-03  2.8202e-03  1.4122e-03  0:08:12 1383
   618  4.4792e-03  2.5857e-03  1.3794e-02  2.6957e+00  4.4670e-03  2.8103e-03  1.4167e-03  0:11:09 1382
   619  4.4167e-03  2.6493e-03  1.3761e-02  2.6169e+00  4.4048e-03  2.8013e-03  1.4209e-03  0:08:55 1381
   620  4.3608e-03  2.7139e-03  1.3740e-02  2.5437e+00  4.3491e-03  2.7931e-03  1.4258e-03  0:11:44 1380
   621  4.3081e-03  2.7785e-03  1.3722e-02  2.4706e+00  4.2967e-03  2.7842e-03  1.4295e-03  0:13:58 1379
   622  4.2593e-03  2.8437e-03  1.3715e-02  2.3910e+00  4.2481e-03  2.7757e-03  1.4347e-03  0:11:10 1378
   623  4.2118e-03  2.9086e-03  1.3716e-02  2.2956e+00  4.2008e-03  2.7674e-03  1.4380e-03  0:13:31 1377
   624  4.1618e-03  2.9727e-03  1.3722e-02  2.2095e+00  4.1510e-03  2.7593e-03  1.4424e-03  0:10:49 1376
   625  4.1132e-03  3.0369e-03  1.3734e-02  2.1168e+00  4.1025e-03  2.7512e-03  1.4465e-03  0:13:13 1375
   626  4.0648e-03  3.0985e-03  1.3745e-02  2.0210e+00  4.0543e-03  2.7434e-03  1.4489e-03  0:10:34 1374
[...]
  1838  1.1570e-03  7.3106e-04  3.5953e-03  2.8828e+00  1.1571e-03  1.3132e-03  6.7385e-04  0:01:05  162
  1839  1.1500e-03  7.2951e-04  3.5945e-03  2.8520e+00  1.1501e-03  1.3102e-03  6.7501e-04  0:00:51  161
  1840  1.1443e-03  7.2804e-04  3.5941e-03  2.7990e+00  1.1443e-03  1.3069e-03  6.7647e-04  0:00:41  160
  1841  1.1395e-03  7.2661e-04  3.5941e-03  2.7363e+00  1.1396e-03  1.3037e-03  6.7801e-04  0:01:04  159
  1842  1.1339e-03  7.2519e-04  3.5943e-03  2.6598e+00  1.1339e-03  1.3005e-03  6.7894e-04  0:00:51  158
  1843  1.1272e-03  7.2384e-04  3.5946e-03  2.5719e+00  1.1272e-03  1.2978e-03  6.8007e-04  0:00:41  157
  1844  1.1204e-03  7.2250e-04  3.5951e-03  2.4719e+00  1.1203e-03  1.2954e-03  6.8122e-04  0:01:03  156
  1845  1.1155e-03  7.2113e-04  3.5955e-03  2.3670e+00  1.1155e-03  1.2928e-03  6.8259e-04  0:00:50  155
  1846  1.1110e-03  7.1975e-04  3.5960e-03  2.2645e+00  1.1109e-03  1.2903e-03  6.8497e-04  0:00:40  154
  1847  1.1022e-03  7.1842e-04  3.5964e-03  2.1654e+00  1.1020e-03  1.2887e-03  6.8730e-04  0:01:02  153
  1848  1.0915e-03  7.1704e-04  3.5970e-03  2.0687e+00  1.0913e-03  1.2878e-03  6.8929e-04  0:00:50  152

  iter  continuity  x-velocity  y-velocity  z-velocity      energy           k       omega     time/iter
  1849  1.0821e-03  7.1569e-04  3.5977e-03  1.9803e+00  1.0819e-03  1.2874e-03  6.9057e-04  0:00:39  151
  1850  1.0740e-03  7.1446e-04  3.5987e-03  1.9077e+00  1.0738e-03  1.2875e-03  6.9141e-04  0:01:01  150
  1851  1.0665e-03  7.1331e-04  3.5998e-03  1.8527e+00  1.0662e-03  1.2880e-03  6.9304e-04  0:00:49  149
  1852  1.0594e-03  7.1219e-04  3.6014e-03  1.8161e+00  1.0591e-03  1.2890e-03  6.9422e-04  0:00:39  148
  1853  1.0528e-03  7.1110e-04  3.6035e-03  1.7904e+00  1.0525e-03  1.2907e-03  6.9629e-04  0:01:00  147
  1854  1.0465e-03  7.1007e-04  3.6059e-03  1.7637e+00  1.0461e-03  1.2927e-03  6.9712e-04  0:00:48  146
  1855  1.0402e-03  7.0911e-04  3.6084e-03  1.7567e+00  1.0398e-03  1.2938e-03  6.9895e-04  0:00:38  145
  1856  1.0333e-03  7.0821e-04  3.6109e-03  1.7609e+00  1.0329e-03  1.2945e-03  7.0009e-04  0:00:59  144
  1857  1.0255e-03  7.0731e-04  3.6133e-03  1.7531e+00  1.0250e-03  1.2951e-03  7.0163e-04  0:00:47  143
  1858  1.0168e-03  7.0633e-04  3.6159e-03  1.7270e+00  1.0163e-03  1.2959e-03  7.0323e-04  0:00:37  142
  1859  1.0091e-03  7.0537e-04  3.6186e-03  1.6980e+00  1.0085e-03  1.2973e-03  7.0515e-04  0:00:58  141

  iter  continuity  x-velocity  y-velocity  z-velocity      energy           k       omega     time/iter
  1860  1.0008e-03  7.0443e-04  3.6214e-03  1.6746e+00  1.0002e-03  1.2983e-03  7.0851e-04  0:00:46  140
  1861  9.8867e-04  7.0350e-04  3.6244e-03  1.6483e+00  9.8801e-04  1.2987e-03  7.1095e-04  0:00:36  139
  1862  9.7516e-04  7.0256e-04  3.6276e-03  1.6061e+00  9.7444e-04  1.2989e-03  7.1282e-04  0:00:57  138
  1863  9.6247e-04  7.0159e-04  3.6309e-03  1.5607e+00  9.6170e-04  1.2994e-03  7.1495e-04  0:00:45  137
  1864  9.5097e-04  7.0056e-04  3.6345e-03  1.5174e+00  9.5014e-04  1.3003e-03  7.1704e-04  0:01:03  136
  1865  9.4082e-04  6.9951e-04  3.6382e-03  1.4718e+00  9.3994e-04  1.3024e-03  7.1963e-04  0:00:50  135
  1866  9.3202e-04  6.9847e-04  3.6420e-03  1.4219e+00  9.3108e-04  1.3043e-03  7.2190e-04  0:00:40  134
  1867  9.2442e-04  6.9746e-04  3.6459e-03  1.3647e+00  9.2342e-04  1.3057e-03  7.2392e-04  0:00:31  133
  1868  9.1750e-04  6.9650e-04  3.6499e-03  1.3021e+00  9.1644e-04  1.3066e-03  7.2619e-04  0:00:51  132
  1869  9.1157e-04  6.9555e-04  3.6542e-03  1.2410e+00  9.1045e-04  1.3074e-03  7.2826e-04  0:00:41  131
  1870  9.0613e-04  6.9456e-04  3.6591e-03  1.1796e+00  9.0496e-04  1.3082e-03  7.3130e-04  0:00:32  130

  iter  continuity  x-velocity  y-velocity  z-velocity      energy           k       omega     time/iter
  1871  9.0116e-04  6.9355e-04  3.6644e-03  1.1106e+00  8.9993e-04  1.3098e-03  7.3480e-04  0:00:52  129
  1872  8.9591e-04  6.9252e-04  3.6699e-03  1.0342e+00  8.9463e-04  1.3113e-03  7.3823e-04  0:00:41  128
  1873  8.9031e-04  6.9148e-04  3.6753e-03  9.5053e-01  8.8897e-04  1.3131e-03  7.4089e-04  0:00:32  127
  1874  8.8356e-04  6.9044e-04  3.6808e-03  8.6498e-01  8.8216e-04  1.3152e-03  7.4255e-04  0:00:51  126
  1875  8.7646e-04  6.8940e-04  3.6861e-03  7.7983e-01  8.7500e-04  1.3166e-03  7.4462e-04  0:00:40  125
  1876  8.6954e-04  6.8830e-04  3.6915e-03  7.0169e-01  8.6801e-04  1.3182e-03  7.4617e-04  0:00:32  124
  1877  8.6315e-04  6.8713e-04  3.6969e-03  6.3102e-01  8.6155e-04  1.3202e-03  7.4856e-04  0:00:50  123
  1878  8.5722e-04  6.8595e-04  3.7024e-03  5.6733e-01  8.5556e-04  1.3222e-03  7.5201e-04  0:00:40  122
  1879  8.5142e-04  6.8480e-04  3.7071e-03  5.1572e-01  8.4970e-04  1.3236e-03  7.5458e-04  0:00:32  121
  1880  8.4515e-04  6.8367e-04  3.7099e-03  4.8401e-01  8.4336e-04  1.3244e-03  7.5592e-04  0:00:49  120
  1881  8.3888e-04  6.8256e-04  3.7123e-03  4.6737e-01  8.3701e-04  1.3249e-03  7.5707e-04  0:00:39  119

  iter  continuity  x-velocity  y-velocity  z-velocity      energy           k       omega     time/iter
  1882  8.3298e-04  6.8133e-04  3.7148e-03  4.6622e-01  8.3105e-04  1.3262e-03  7.5862e-04  0:00:31  118
  1883  8.2737e-04  6.8011e-04  3.7170e-03  4.7768e-01  8.2536e-04  1.3295e-03  7.6199e-04  0:00:48  117
  1884  8.2363e-04  6.7889e-04  3.7201e-03  5.0041e-01  8.2156e-04  1.3327e-03  7.6503e-04  0:00:38  116
  1885  8.2167e-04  6.7775e-04  3.7244e-03  5.2609e-01  8.1954e-04  1.3358e-03  7.6663e-04  0:00:30  115
  1886  8.2189e-04  6.7667e-04  3.7297e-03  5.5016e-01  8.1970e-04  1.3375e-03  7.6903e-04  0:00:24  114
  1887  8.2364e-04  6.7564e-04  3.7358e-03  5.7439e-01  8.2141e-04  1.3378e-03  7.7111e-04  0:00:42  113
  1888  8.2655e-04  6.7453e-04  3.7423e-03  6.0070e-01  8.2427e-04  1.3395e-03  7.7307e-04  0:00:33  112
  1889  8.3182e-04  6.7347e-04  3.7487e-03  6.2245e-01  8.2950e-04  1.3411e-03  7.7539e-04  0:00:26  111
  1890  8.3100e-04  6.7251e-04  3.7552e-03  6.4474e-01  8.2862e-04  1.3422e-03  7.7748e-04  0:00:43  110
  1891  8.1967e-04  6.7153e-04  3.7618e-03  6.7144e-01  8.1719e-04  1.3429e-03  7.7977e-04  0:00:34  109
  1892  8.1674e-04  6.7053e-04  3.7681e-03  6.9300e-01  8.1418e-04  1.3433e-03  7.8120e-04  0:00:27  108

  iter  continuity  x-velocity  y-velocity  z-velocity      energy           k       omega     time/iter
  1893  8.1693e-04  6.6938e-04  3.7741e-03  7.1358e-01  8.1432e-04  1.3442e-03  7.8272e-04  0:00:43  107
  1894  8.1834e-04  6.6813e-04  3.7801e-03  7.3314e-01  8.1567e-04  1.3458e-03  7.8501e-04  0:00:34  106
  1895  8.2127e-04  6.6685e-04  3.7858e-03  7.5261e-01  8.1856e-04  1.3482e-03  7.8855e-04  0:00:27  105
  1896  8.2488e-04  6.6565e-04  3.7915e-03  7.7183e-01  8.2212e-04  1.3504e-03  7.9195e-04  0:00:42  104
  1897  8.2228e-04  6.6453e-04  3.7970e-03  7.9734e-01  8.1946e-04  1.3526e-03  7.9385e-04  0:00:33  103
  1898  8.2647e-04  6.6346e-04  3.8021e-03  8.2262e-01  8.2362e-04  1.3545e-03  7.9589e-04  0:00:26  102
  1899  8.2780e-04  6.6238e-04  3.8072e-03  8.4585e-01  8.2490e-04  1.3570e-03  7.9729e-04  0:00:41  101
  1900  8.3101e-04  6.6124e-04  3.8122e-03  8.6832e-01  8.2808e-04  1.3595e-03  7.9930e-04  0:00:33  100
  1901  8.4250e-04  6.6016e-04  3.8166e-03  8.9065e-01  8.3956e-04  1.3611e-03  8.0170e-04  0:00:46   99
  1902  8.4347e-04  6.5915e-04  3.8205e-03  9.1372e-01  8.4048e-04  1.3631e-03  8.0478e-04  0:00:36   98
  1903  8.4511e-04  6.5820e-04  3.8246e-03  9.3575e-01  8.4208e-04  1.3650e-03  8.0708e-04  0:00:29   97

  iter  continuity  x-velocity  y-velocity  z-velocity      energy           k       omega     time/iter
  1904  8.4201e-04  6.5736e-04  3.8295e-03  9.5880e-01  8.3890e-04  1.3662e-03  8.0822e-04  0:00:42   96
  1905  8.3351e-04  6.5657e-04  3.8348e-03  9.8189e-01  8.3031e-04  1.3673e-03  8.1024e-04  0:00:33   95
  1906  8.2808e-04  6.5589e-04  3.8408e-03  1.0040e+00  8.2482e-04  1.3683e-03  8.1260e-04  0:00:26   94
  1907  8.2597e-04  6.5527e-04  3.8467e-03  1.0242e+00  8.2265e-04  1.3692e-03  8.1487e-04  0:00:39   93
  1908  8.1590e-04  6.5473e-04  3.8527e-03  1.0464e+00  8.1248e-04  1.3704e-03  8.1570e-04  0:00:31   92
  1909  8.0327e-04  6.5438e-04  3.8586e-03  1.0622e+00  7.9974e-04  1.3717e-03  8.1606e-04  0:00:25   91
  1910  7.9352e-04  6.5411e-04  3.8648e-03  1.0723e+00  7.8989e-04  1.3732e-03  8.1730e-04  0:00:37   90
  1911  7.7987e-04  6.5381e-04  3.8717e-03  1.0749e+00  7.7613e-04  1.3753e-03  8.1837e-04  0:00:30   89
  1912  7.7157e-04  6.5358e-04  3.8791e-03  1.0735e+00  7.6774e-04  1.3772e-03  8.1883e-04  0:00:23   88
  1913  7.5897e-04  6.5349e-04  3.8887e-03  1.0706e+00  7.5503e-04  1.3783e-03  8.1939e-04  0:00:36   87
  1914  7.4242e-04  6.5349e-04  3.8987e-03  1.0650e+00  7.3836e-04  1.3789e-03  8.1910e-04  0:00:28   86

  iter  continuity  x-velocity  y-velocity  z-velocity      energy           k       omega     time/iter
  1915  7.2618e-04  6.5358e-04  3.9087e-03  1.0589e+00  7.2198e-04  1.3800e-03  8.2058e-04  0:00:22   85
  1916  7.1078e-04  6.5387e-04  3.9187e-03  1.0520e+00  7.0646e-04  1.3813e-03  8.2450e-04  0:00:35   84
  1917  6.9642e-04  6.5410e-04  3.9282e-03  1.0454e+00  6.9198e-04  1.3829e-03  8.2683e-04  0:00:27   83
  1918  6.8356e-04  6.5425e-04  3.9372e-03  1.0392e+00  6.7901e-04  1.3843e-03  8.2876e-04  0:00:22   82
  1919  6.7226e-04  6.5463e-04  3.9456e-03  1.0342e+00  6.6761e-04  1.3854e-03  8.3074e-04  0:00:33   81
  1920  6.6267e-04  6.5506e-04  3.9538e-03  1.0315e+00  6.5794e-04  1.3868e-03  8.3179e-04  0:00:26   80
  1921  6.5498e-04  6.5552e-04  3.9617e-03  1.0313e+00  6.5018e-04  1.3892e-03  8.3548e-04  0:00:21   79
  1922  6.4888e-04  6.5616e-04  3.9696e-03  1.0354e+00  6.4403e-04  1.3919e-03  8.3894e-04  0:00:32   78
  1923  6.4454e-04  6.5683e-04  3.9777e-03  1.0430e+00  6.3965e-04  1.3945e-03  8.4008e-04  0:00:25   77
  1924  6.4091e-04  6.5747e-04  3.9859e-03  1.0549e+00  6.3598e-04  1.3958e-03  8.4098e-04  0:00:20   76
  1925  6.3820e-04  6.5834e-04  3.9945e-03  1.0723e+00  6.3323e-04  1.3969e-03  8.4152e-04  0:00:31   75

  iter  continuity  x-velocity  y-velocity  z-velocity      energy           k       omega     time/iter
  1926  6.3603e-04  6.5929e-04  4.0036e-03  1.0953e+00  6.3103e-04  1.3989e-03  8.4246e-04  0:00:24   74
  1927  6.3665e-04  6.6032e-04  4.0130e-03  1.1225e+00  6.3163e-04  1.4013e-03  8.4465e-04  0:00:19   73
  1928  6.3658e-04  6.6153e-04  4.0225e-03  1.1561e+00  6.3154e-04  1.4040e-03  8.4562e-04  0:00:30   72
  1929  6.3540e-04  6.6272e-04  4.0325e-03  1.1948e+00  6.3032e-04  1.4060e-03  8.4598e-04  0:00:23   71
  1930  6.3379e-04  6.6403e-04  4.0430e-03  1.2391e+00  6.2868e-04  1.4079e-03  8.4611e-04  0:00:18   70
  1931  6.3105e-04  6.6542e-04  4.0538e-03  1.2903e+00  6.2589e-04  1.4104e-03  8.4536e-04  0:00:28   69
  1932  6.2648e-04  6.6680e-04  4.0649e-03  1.3474e+00  6.2126e-04  1.4131e-03  8.4769e-04  0:00:22   68
  1933  6.2310e-04  6.6821e-04  4.0763e-03  1.4111e+00  6.1781e-04  1.4155e-03  8.4979e-04  0:00:18   67
  1934  6.2314e-04  6.6958e-04  4.0880e-03  1.4840e+00  6.1783e-04  1.4171e-03  8.5037e-04  0:00:27   66
  1935  6.1933e-04  6.7096e-04  4.1001e-03  1.5671e+00  6.1397e-04  1.4183e-03  8.5195e-04  0:00:21   65
  1936  6.1734e-04  6.7235e-04  4.1128e-03  1.6561e+00  6.1194e-04  1.4200e-03  8.5230e-04  0:00:17   64

  iter  continuity  x-velocity  y-velocity  z-velocity      energy           k       omega     time/iter
  1937  6.1533e-04  6.7363e-04  4.1255e-03  1.7529e+00  6.0991e-04  1.4215e-03  8.5489e-04  0:00:26   63
  1938  6.1397e-04  6.7461e-04  4.1378e-03  1.8537e+00  6.0854e-04  1.4236e-03  8.5796e-04  0:00:20   62
  1939  6.1380e-04  6.7558e-04  4.1500e-03  1.9561e+00  6.0836e-04  1.4255e-03  8.5891e-04  0:00:16   61
  1940  6.1557e-04  6.7660e-04  4.1623e-03  2.0574e+00  6.1015e-04  1.4261e-03  8.5945e-04  0:00:25   60
  1941  6.1777e-04  6.7761e-04  4.1747e-03  2.1573e+00  6.1237e-04  1.4268e-03  8.6043e-04  0:00:19   59
  1942  6.2037e-04  6.7869e-04  4.1870e-03  2.2479e+00  6.1500e-04  1.4273e-03  8.6029e-04  0:00:15   58
  1943  6.2482e-04  6.7981e-04  4.1983e-03  2.3311e+00  6.1949e-04  1.4276e-03  8.6330e-04  0:00:12   57
  1944  6.3175e-04  6.8094e-04  4.2066e-03  2.4022e+00  6.2648e-04  1.4288e-03  8.6599e-04  0:00:21   56
  1945  6.4194e-04  6.8205e-04  4.2142e-03  2.4607e+00  6.3677e-04  1.4305e-03  8.6633e-04  0:00:16   55
  1946  6.4850e-04  6.8312e-04  4.2234e-03  2.5044e+00  6.4339e-04  1.4329e-03  8.6501e-04  0:00:13   54
  1947  6.5436e-04  6.8423e-04  4.2337e-03  2.5320e+00  6.4932e-04  1.4345e-03  8.6519e-04  0:00:21   53

  iter  continuity  x-velocity  y-velocity  z-velocity      energy           k       omega     time/iter
  1948  6.6269e-04  6.8535e-04  4.2437e-03  2.5433e+00  6.5774e-04  1.4354e-03  8.6670e-04  0:00:16   52
  1949  6.7309e-04  6.8649e-04  4.2528e-03  2.5380e+00  6.6824e-04  1.4355e-03  8.7019e-04  0:00:13   51
  1950  6.9057e-04  6.8761e-04  4.2621e-03  2.5209e+00  6.8586e-04  1.4350e-03  8.7236e-04  0:00:20   50
  1951  7.0351e-04  6.8880e-04  4.2725e-03  2.4943e+00  6.9891e-04  1.4355e-03  8.7419e-04  0:00:16   49
  1952  7.1043e-04  6.9005e-04  4.2840e-03  2.4629e+00  7.0588e-04  1.4365e-03  8.7566e-04  0:00:12   48
  1953  7.1342e-04  6.9138e-04  4.2965e-03  2.4229e+00  7.0889e-04  1.4372e-03  8.7687e-04  0:00:10   47
  1954  7.1431e-04  6.9281e-04  4.3097e-03  2.3737e+00  7.0978e-04  1.4373e-03  8.7950e-04  0:00:17   46
  1955  7.1313e-04  6.9425e-04  4.3233e-03  2.3282e+00  7.0859e-04  1.4374e-03  8.8308e-04  0:00:13   45
  1956  7.1035e-04  6.9583e-04  4.3370e-03  2.2953e+00  7.0577e-04  1.4378e-03  8.8656e-04  0:00:10   44
  1957  7.0605e-04  6.9756e-04  4.3507e-03  2.2649e+00  7.0143e-04  1.4390e-03  8.8966e-04  0:00:17   43
  1958  7.0152e-04  6.9939e-04  4.3645e-03  2.2480e+00  6.9685e-04  1.4397e-03  8.9151e-04  0:00:13   42

  iter  continuity  x-velocity  y-velocity  z-velocity      energy           k       omega     time/iter
  1959  6.9739e-04  7.0133e-04  4.3779e-03  2.2721e+00  6.9268e-04  1.4401e-03  8.9289e-04  0:00:10   41
  1960  6.9376e-04  7.0330e-04  4.3907e-03  2.2681e+00  6.8900e-04  1.4403e-03  8.9505e-04  0:00:08   40
  1961  6.9084e-04  7.0539e-04  4.4034e-03  2.2662e+00  6.8603e-04  1.4402e-03  8.9764e-04  0:00:14   39
  1962  6.8861e-04  7.0756e-04  4.4160e-03  2.2737e+00  6.8377e-04  1.4408e-03  9.0202e-04  0:00:11   38
  1963  6.8708e-04  7.0985e-04  4.4288e-03  2.2644e+00  6.8220e-04  1.4409e-03  9.0548e-04  0:00:08   37
  1964  6.8576e-04  7.1220e-04  4.4418e-03  2.2555e+00  6.8084e-04  1.4417e-03  9.0716e-04  0:00:14   36
  1965  6.8500e-04  7.1454e-04  4.4550e-03  2.2469e+00  6.8005e-04  1.4422e-03  9.0830e-04  0:00:11   35
  1966  6.8496e-04  7.1693e-04  4.4683e-03  2.2388e+00  6.7998e-04  1.4415e-03  9.1007e-04  0:00:08   34
  1967  6.8548e-04  7.1934e-04  4.4816e-03  2.2293e+00  6.8048e-04  1.4405e-03  9.1097e-04  0:00:13   33
  1968  6.8655e-04  7.2181e-04  4.4951e-03  2.2154e+00  6.8153e-04  1.4403e-03  9.1162e-04  0:00:10   32
  1969  6.8795e-04  7.2429e-04  4.5085e-03  2.1949e+00  6.8292e-04  1.4401e-03  9.1237e-04  0:00:08   31

  iter  continuity  x-velocity  y-velocity  z-velocity      energy           k       omega     time/iter
  1970  6.8963e-04  7.2680e-04  4.5218e-03  2.1673e+00  6.8460e-04  1.4401e-03  9.1381e-04  0:00:06   30
  1971  6.9147e-04  7.2938e-04  4.5351e-03  2.1321e+00  6.8643e-04  1.4400e-03  9.1596e-04  0:00:11   29
  1972  6.9351e-04  7.3197e-04  4.5483e-03  2.0902e+00  6.8847e-04  1.4397e-03  9.1864e-04  0:00:08   28
  1973  6.9538e-04  7.3458e-04  4.5615e-03  2.0417e+00  6.9033e-04  1.4401e-03  9.2125e-04  0:00:06   27
  1974  6.9718e-04  7.3712e-04  4.5746e-03  1.9878e+00  6.9213e-04  1.4405e-03  9.2343e-04  0:00:10   26
  1975  6.9872e-04  7.3971e-04  4.5876e-03  1.9301e+00  6.9367e-04  1.4404e-03  9.2445e-04  0:00:08   25
  1976  7.0015e-04  7.4237e-04  4.6005e-03  1.8705e+00  6.9510e-04  1.4399e-03  9.2511e-04  0:00:06   24
  1977  7.0227e-04  7.4503e-04  4.6132e-03  1.8115e+00  6.9722e-04  1.4394e-03  9.2726e-04  0:00:09   23
  1978  7.0199e-04  7.4769e-04  4.6259e-03  1.7553e+00  6.9693e-04  1.4395e-03  9.3021e-04  0:00:07   22
  1979  7.0185e-04  7.5021e-04  4.6385e-03  1.7031e+00  6.9678e-04  1.4402e-03  9.3267e-04  0:00:05   21
  1980  7.0203e-04  7.5280e-04  4.6512e-03  1.6558e+00  6.9695e-04  1.4403e-03  9.3371e-04  0:00:04   20

  iter  continuity  x-velocity  y-velocity  z-velocity      energy           k       omega     time/iter
  1981  7.0213e-04  7.5529e-04  4.6639e-03  1.6133e+00  6.9705e-04  1.4399e-03  9.3522e-04  0:00:07   19
  1982  7.0144e-04  7.5767e-04  4.6763e-03  1.5745e+00  6.9635e-04  1.4397e-03  9.3714e-04  0:00:05   18
  1983  7.0088e-04  7.6004e-04  4.6886e-03  1.5381e+00  6.9578e-04  1.4397e-03  9.4045e-04  0:00:04   17
  1984  7.0046e-04  7.6239e-04  4.7008e-03  1.5045e+00  6.9536e-04  1.4402e-03  9.4419e-04  0:00:06   16
  1985  7.0037e-04  7.6463e-04  4.7129e-03  1.4728e+00  6.9526e-04  1.4401e-03  9.4567e-04  0:00:05   15
  1986  7.0032e-04  7.6675e-04  4.7250e-03  1.4408e+00  6.9521e-04  1.4395e-03  9.4619e-04  0:00:03   14
  1987  7.0083e-04  7.6887e-04  4.7370e-03  1.4098e+00  6.9573e-04  1.4390e-03  9.4670e-04  0:00:05   13
  1988  7.0181e-04  7.7098e-04  4.7493e-03  1.3801e+00  6.9671e-04  1.4389e-03  9.4916e-04  0:00:04   12
  1989  7.0378e-04  7.7306e-04  4.7642e-03  1.3520e+00  6.9870e-04  1.4386e-03  9.5221e-04  0:00:03   11
  1990  7.0654e-04  7.7505e-04  4.7790e-03  1.3267e+00  7.0148e-04  1.4386e-03  9.5530e-04  0:00:04   10
  1991  7.1060e-04  7.7714e-04  4.7929e-03  1.3019e+00  7.0558e-04  1.4385e-03  9.5850e-04  0:00:03    9

  iter  continuity  x-velocity  y-velocity  z-velocity      energy           k       omega     time/iter
  1992  7.1503e-04  7.7921e-04  4.8063e-03  1.2755e+00  7.1005e-04  1.4387e-03  9.6052e-04  0:00:02    8
  1993  7.2022e-04  7.8131e-04  4.8192e-03  1.2444e+00  7.1527e-04  1.4395e-03  9.6224e-04  0:00:03    7
  1994  7.2689e-04  7.8363e-04  4.8317e-03  1.2063e+00  7.2199e-04  1.4399e-03  9.6466e-04  0:00:02    6
  1995  7.3260e-04  7.8587e-04  4.8437e-03  1.1548e+00  7.2774e-04  1.4410e-03  9.6709e-04  0:00:01    5
  1996  7.3801e-04  7.8802e-04  4.8555e-03  1.0977e+00  7.3319e-04  1.4415e-03  9.6846e-04  0:00:02    4
  1997  7.4322e-04  7.9029e-04  4.8670e-03  1.0342e+00  7.3845e-04  1.4418e-03  9.6995e-04  0:00:01    3
  1998  7.4840e-04  7.9260e-04  4.8786e-03  9.6686e-01  7.4367e-04  1.4424e-03  9.7229e-04  0:00:01    2
  1999  7.5326e-04  7.9484e-04  4.8901e-03  8.9909e-01  7.4858e-04  1.4432e-03  9.7356e-04  0:00:00    1
  2000  7.5737e-04  7.9713e-04  4.9018e-03  8.3140e-01  7.5274e-04  1.4446e-03  9.7456e-04  0:00:00    0

> 
adjoint/                parallel/               server/
define/                 parametric-study/       solve/
display/                plot/                   surface/
exit                    preferences/            turbo-workflow/
file/                   print-license-usage     views/
mesh/                   report/

> /file/write-case-data project1
Fast-loading "C:\PROGRA~1\ANSYSI~1\v231\fluent\fluent23.1.0\\addons\afd\lib\hdfio.bin"
Done.

Writing to Engs-30669:"C:\Users\kebl7595\Desktop\CFD\Runs\Flap\18 degree\project1.cas.h5" in NODE0 mode and compression level 1 ...
       24072 cells,     1 zone  ...
       80918 faces,     7 zones ...
       33000 nodes,     1 zone  ...
  Done.
Done.

Writing to Engs-30669:"C:\Users\kebl7595\Desktop\CFD\Runs\Flap\18 degree\project1.dat.h5" in NODE0 mode and compression level 1 ...
  Writing results.
Done.

> /file/export/ascii "./surface.dat" wing () no pressure mach-number quit no

Writing "./surface.dat"...

Writing information to ascii file ...
Done.


> /report/forces/wall-forces y -0.30902 -0.95106 0 y "Lift"

> /report/forces/wall-forces y 0.95106 -0.30902 0 y "Drag"

> ;/exit

> /exit y

Posting ANSYS Product Improvement Program performance data 
Done.
Auto-Transcript Stop Time:  10:24:45, 22 May 2024 GMT Daylight Time 
Total Transcript Time: 15 Minute 12 Second.
