Auto-Transcript Start Time:  14:40:02, 20 May 2024 GMT Daylight Time 
Current Directory: "C:\Users\kebl7595\Desktop\CFD\Runs\Actual Data\12 degrees"

              Welcome to ANSYS Fluent 2023 R1

              Copyright 1987-2023 ANSYS, Inc. All Rights Reserved.
              Unauthorized use, distribution or duplication is prohibited.
              This product is subject to U.S. laws governing export and re-export.
              For full Legal Notice, see documentation.

Build Time: Nov 28 2022 09:52:02 EST  Build Id: 10208  
 
Connected License Server List:	1055@ansyslic.eng.ox.ac.uk

*********************************************
Info: Your license enables 4-way parallel execution.
For faster simulations, please start the application with the appropriate parallel options.
*********************************************


     --------------------------------------------------------------
     This is an academic version of ANSYS FLUENT. Usage of this product
     license is limited to the terms and conditions specified in your ANSYS
     license form, additional terms section.
     --------------------------------------------------------------
Host spawning Node 0 on machine "Engs-30669" (win64).

------------------------------------------------------------------------------------
ID    Hostname    Core  O.S.         PID    Vendor                                 
------------------------------------------------------------------------------------
n0    Engs-30669  1/32  Windows-x64  29336  13th Gen Intel(R) Core(TM) i9-13900    
host  Engs-30669        Windows-x64  45452  13th Gen Intel(R) Core(TM) i9-13900    

MPI Option Selected: intel
------------------------------------------------------------------------------------

Cleanup script file is C:\\Users\\kebl7595\\Desktop\\CFD\\Runs\\Actual Data\\12 degrees\\cleanup-fluent-Engs-30669-45452.bat
QA Service Message :
QA Services Agreement Enabled. This application is included in the scope of an ANSYS QA Services Agreement.
Posting ANSYS Product Improvement Program startup data
Done.

Reading journal file C:/Users/kebl7595/Desktop/CFD/Runs/Actual Data/12 degrees/project1.jou...

> /file/set-batch-options no no no 

> 
define/                 parametric-study/       solve/
display/                plot/                   surface/
exit                    preferences/            switch-to-meshing-mode
file/                   print-license-usage     turbo-workflow/
mesh/                   report/                 views/
parallel/               server/

> /file/import/cgns/mesh  "./project1.cgns"
Engs-30669 has other FLUENT parallel processes running.                       Process affinity not being set.

Importing "./project1.cgns"

Opening library "C:\\PROGRA~1\\ANSYSI~1\\v231\\fluent\\fluent23.1.0\\vki\\win64\\devtools4.4.6.dll"... done.

Read    17864 nodes
   12996 hexahedral cells, zone  1
    9462 quadrilateral wall faces, zone  2.
   33972 quadrilateral interior faces, zone  3.
     282 quadrilateral interface faces, zone  4.
       6 quadrilateral wall faces, zone  5.

Building...
     mesh
     materials,
     interface,
     domains,
     zones,
	default_exterior-1
	interface-default_subface
	default_interior-1
	default_subface
	default
     parallel,
The automatic selection for flux type has changed to Rhie-Chow: momentum based.

Done.


> 
adjoint/                parallel/               server/
define/                 parametric-study/       solve/
display/                plot/                   surface/
exit                    preferences/            turbo-workflow/
file/                   print-license-usage     views/
mesh/                   report/

> /define/models/solver/density-based-implicit yes

> 
adjoint/                parallel/               server/
define/                 parametric-study/       solve/
display/                plot/                   surface/
exit                    preferences/            turbo-workflow/
file/                   print-license-usage     views/
mesh/                   report/

> /define/models/energy? yes yes invalid command [yes]
yes

> /define/models/viscous/inviscid yes

> 
adjoint/                parallel/               server/
define/                 parametric-study/       solve/
display/                plot/                   surface/
exit                    preferences/            turbo-workflow/
file/                   print-license-usage     views/
mesh/                   report/

> /define/materials/change-create air air air is a fluid
yes 
Density
ideal-gas no data required.

no no no no 

> 
adjoint/                parallel/               server/
define/                 parametric-study/       solve/
display/                plot/                   surface/
exit                    preferences/            turbo-workflow/
file/                   print-license-usage     views/
mesh/                   report/

> /mesh/modify-zones/sep-face-zone-angle 2 90 yes

 4332 faces in contiguous region 0
 228 faces in contiguous region 1
 342 faces in contiguous region 2
 4332 faces in contiguous region 3
 228 faces in contiguous region 4
 Separates zone 2 into 5 zone(s).
Updating new zone information...
   created new zone default_subface:010 from default_subface
   created new zone default_subface:009 from default_subface
   created new zone default_subface:008 from default_subface
   created new zone default_subface:007 from default_subface
done.

> 
adjoint/                parallel/               server/
define/                 parametric-study/       solve/
display/                plot/                   surface/
exit                    preferences/            turbo-workflow/
file/                   print-license-usage     views/
mesh/                   report/

> /define/boundary-conditions/zone-name  5   te

> /define/boundary-conditions/zone-name  7 wing

> /define/boundary-conditions/zone-name  2 sym1

> /define/boundary-conditions/zone-name  9 sym2

> 
adjoint/                parallel/               server/
define/                 parametric-study/       solve/
display/                plot/                   surface/
exit                    preferences/            turbo-workflow/
file/                   print-license-usage     views/
mesh/                   report/

> /define/boundary-conditions/zone-name  8 far1

> /define/boundary-conditions/zone-name 10 far2

> 
adjoint/                parallel/               server/
define/                 parametric-study/       solve/
display/                plot/                   surface/
exit                    preferences/            turbo-workflow/
file/                   print-license-usage     views/
mesh/                   report/

> /define/boundary-conditions/zone-type  8 pressure-far-field

> /define/boundary-conditions/zone-type 10 pressure-far-field

> /define/boundary-conditions/zone-type  2 symmetry

> /define/boundary-conditions/zone-type  9 symmetry

> 
adjoint/                parallel/               server/
define/                 parametric-study/       solve/
display/                plot/                   surface/
exit                    preferences/            turbo-workflow/
file/                   print-license-usage     views/
mesh/                   report/

> /define/boundary-conditions/pressure-far-field (far2 far1)
far1 no 0 no 0.1 no 300 yes no 0.97815 no 0.20791 no 0

> /define/boundary-conditions/pressure-far-field (far2 far1)
far2 no 0 no 0.1 no 300 yes no 0.97815 no 0.20791 no 0

> 
adjoint/                parallel/               server/
define/                 parametric-study/       solve/
display/                plot/                   surface/
exit                    preferences/            turbo-workflow/
file/                   print-license-usage     views/
mesh/                   report/

> /solve/initialize/compute-defaults/pressure-far-field (far2 far1)
far1

> /solve/initialize/initialize-flow

> 
adjoint/                parallel/               server/
define/                 parametric-study/       solve/
display/                plot/                   surface/
exit                    preferences/            turbo-workflow/
file/                   print-license-usage     views/
mesh/                   report/

> /solve/monitors/residual/convergence-criteria 1.e-9 1.e-9 1.e-9 1.e-9 1.e-9

> /solve/iterate 2000

  iter  continuity  x-velocity  y-velocity  z-velocity      energy     time/iter
     1  1.0000e+00  1.0000e+00  1.0000e+00  0.0000e+00  1.0000e+00  0:00:00 1999
     2  5.3704e-01  5.1849e-01  3.7227e-01  1.0000e+00  5.3768e-01  0:33:18 1998
     3  2.8033e-01  2.2214e-01  2.4699e-01  8.5763e-01  2.8056e-01  0:26:38 1997
     4  1.7477e-01  1.6105e-01  1.5774e-01  5.6639e-01  1.7483e-01  0:21:17 1996
     5  1.3427e-01  1.1684e-01  1.0183e-01  5.6316e-01  1.3436e-01  0:17:01 1995
     6  1.1174e-01  8.1566e-02  7.0749e-02  7.0082e-01  1.1187e-01  0:13:37 1994
     7  9.6224e-02  5.8315e-02  5.2576e-02  7.1782e-01  9.6381e-02  0:10:53 1993
     8  8.4377e-02  4.4389e-02  4.0643e-02  6.5857e-01  8.4537e-02  0:08:42 1992
     9  7.5152e-02  3.6286e-02  3.2403e-02  5.9429e-01  7.5305e-02  0:13:36 1991
    10  6.8416e-02  3.1878e-02  2.6634e-02  5.5894e-01  6.8560e-02  0:10:52 1990
    11  6.3785e-02  2.9689e-02  2.2501e-02  5.3301e-01  6.3917e-02  0:08:42 1989

  iter  continuity  x-velocity  y-velocity  z-velocity      energy     time/iter
    12  6.0807e-02  2.9034e-02  1.9524e-02  5.1275e-01  6.0928e-02  0:06:57 1988
    13  5.9139e-02  2.9250e-02  1.7440e-02  5.0940e-01  5.9250e-02  0:05:33 1987
    14  5.8453e-02  3.0046e-02  1.6021e-02  5.1792e-01  5.8556e-02  0:04:27 1986
    15  5.8373e-02  3.1152e-02  1.5009e-02  5.3810e-01  5.8467e-02  0:03:33 1985
    16  5.9175e-02  3.2521e-02  1.4434e-02  5.5929e-01  5.9259e-02  0:02:50 1984
    17  6.0570e-02  3.4010e-02  1.4071e-02  5.8799e-01  6.0646e-02  0:02:16 1983
    18  6.2329e-02  3.5461e-02  1.3889e-02  6.2278e-01  6.2396e-02  0:08:25 1982
    19  6.4085e-02  3.6739e-02  1.3977e-02  6.6450e-01  6.4141e-02  0:06:44 1981
    20  6.5611e-02  3.7764e-02  1.4207e-02  7.1323e-01  6.5655e-02  0:05:23 1980
    21  6.6893e-02  3.8563e-02  1.4418e-02  7.6702e-01  6.6922e-02  0:04:18 1979
    22  6.8116e-02  3.9126e-02  1.4657e-02  8.2291e-01  6.8131e-02  0:03:27 1978

  iter  continuity  x-velocity  y-velocity  z-velocity      energy     time/iter
    23  6.9114e-02  3.9352e-02  1.4900e-02  8.6969e-01  6.9113e-02  0:02:45 1977
    24  6.9556e-02  3.9210e-02  1.5120e-02  9.0650e-01  6.9539e-02  0:02:12 1976
    25  6.9228e-02  3.8733e-02  1.5123e-02  9.2977e-01  6.9193e-02  0:01:46 1975
    26  6.8474e-02  3.8020e-02  1.5152e-02  9.3747e-01  6.8421e-02  0:01:24 1974
    27  6.7421e-02  3.7156e-02  1.5016e-02  9.2582e-01  6.7352e-02  0:07:42 1973
    28  6.5831e-02  3.6077e-02  1.4702e-02  8.9923e-01  6.5746e-02  0:06:10 1972
    29  6.3547e-02  3.4852e-02  1.4325e-02  8.5253e-01  6.3447e-02  0:04:55 1971
    30  6.0777e-02  3.3515e-02  1.3863e-02  7.9526e-01  6.0663e-02  0:03:56 1970
    31  5.7760e-02  3.2375e-02  1.3533e-02  7.2976e-01  5.7634e-02  0:03:09 1969
    32  5.4373e-02  3.1242e-02  1.3285e-02  6.6425e-01  5.4236e-02  0:02:31 1968
    33  5.0611e-02  3.0223e-02  1.3219e-02  6.0735e-01  5.0465e-02  0:02:01 1967

  iter  continuity  x-velocity  y-velocity  z-velocity      energy     time/iter
    34  4.6752e-02  2.9428e-02  1.3505e-02  5.7269e-01  4.6599e-02  0:01:37 1966
    35  4.2778e-02  2.9033e-02  1.4291e-02  5.6729e-01  4.2620e-02  0:01:17 1965
    36  3.8762e-02  2.8822e-02  1.5399e-02  5.8835e-01  3.8600e-02  0:01:02 1964
    37  3.4726e-02  2.8912e-02  1.6689e-02  6.3150e-01  3.4560e-02  0:07:22 1963
    38  3.0928e-02  2.9365e-02  1.8202e-02  6.8786e-01  3.0762e-02  0:05:53 1962
    39  2.7178e-02  3.0142e-02  1.9833e-02  7.4698e-01  2.7011e-02  0:04:43 1961
    40  2.3627e-02  3.1090e-02  2.1435e-02  8.0307e-01  2.3460e-02  0:03:46 1960
    41  2.0323e-02  3.2118e-02  2.2950e-02  8.5214e-01  2.0158e-02  0:03:01 1959
    42  1.7331e-02  3.3251e-02  2.4335e-02  8.9268e-01  1.7168e-02  0:02:24 1958
    43  1.4771e-02  3.4476e-02  2.5564e-02  9.2402e-01  1.4611e-02  0:01:56 1957
    44  1.2506e-02  3.5698e-02  2.6611e-02  9.4094e-01  1.2353e-02  0:01:32 1956

  iter  continuity  x-velocity  y-velocity  z-velocity      energy     time/iter
    45  1.0684e-02  3.6917e-02  2.7467e-02  9.4048e-01  1.0541e-02  0:01:14 1955
    46  9.4406e-03  3.8083e-02  2.8135e-02  9.2270e-01  9.3149e-03  0:00:59 1954
    47  8.8398e-03  3.9148e-02  2.8625e-02  8.9158e-01  8.7391e-03  0:07:18 1953
    48  8.8380e-03  4.0089e-02  2.8950e-02  8.5200e-01  8.7659e-03  0:05:50 1952
    49  9.2962e-03  4.0921e-02  2.9107e-02  8.0374e-01  9.2505e-03  0:04:40 1951
    50  1.0047e-02  4.1643e-02  2.9103e-02  7.4924e-01  1.0022e-02  0:03:44 1950
    51  1.0948e-02  4.2238e-02  2.8943e-02  6.9104e-01  1.0938e-02  0:02:59 1949
    52  1.1902e-02  4.2723e-02  2.8632e-02  6.3209e-01  1.1903e-02  0:02:23 1948
    53  1.2835e-02  4.3066e-02  2.8180e-02  5.7625e-01  1.2843e-02  0:01:54 1947
    54  1.3709e-02  4.3282e-02  2.7602e-02  5.2924e-01  1.3721e-02  0:01:31 1946
    55  1.4507e-02  4.3364e-02  2.6908e-02  4.9555e-01  1.4522e-02  0:01:13 1945

  iter  continuity  x-velocity  y-velocity  z-velocity      energy     time/iter
    56  1.5220e-02  4.3262e-02  2.6110e-02  4.7388e-01  1.5236e-02  0:00:58 1944
    57  1.5843e-02  4.3030e-02  2.5210e-02  4.6851e-01  1.5859e-02  0:00:47 1943
    58  1.6370e-02  4.2674e-02  2.4219e-02  4.7913e-01  1.6386e-02  0:07:06 1942
    59  1.6795e-02  4.2156e-02  2.3151e-02  5.0232e-01  1.6810e-02  0:05:40 1941
    60  1.7118e-02  4.1498e-02  2.2019e-02  5.3266e-01  1.7132e-02  0:04:32 1940
    61  1.7330e-02  4.0689e-02  2.0834e-02  5.6505e-01  1.7343e-02  0:03:38 1939
    62  1.7424e-02  3.9704e-02  1.9605e-02  5.9706e-01  1.7435e-02  0:02:54 1938
    63  1.7388e-02  3.8498e-02  1.8360e-02  6.2697e-01  1.7397e-02  0:02:19 1937
    64  1.7246e-02  3.7303e-02  1.7063e-02  6.5051e-01  1.7253e-02  0:01:51 1936
    65  1.6976e-02  3.6019e-02  1.5759e-02  6.6626e-01  1.6981e-02  0:01:29 1935
    66  1.6577e-02  3.4670e-02  1.4481e-02  6.7620e-01  1.6581e-02  0:01:11 1934

  iter  continuity  x-velocity  y-velocity  z-velocity      energy     time/iter
    67  1.6045e-02  3.3206e-02  1.3234e-02  6.7945e-01  1.6047e-02  0:00:57 1933
    68  1.5374e-02  3.1378e-02  1.2043e-02  6.7697e-01  1.5374e-02  0:07:12 1932
    69  1.4574e-02  2.9587e-02  1.0875e-02  6.6764e-01  1.4573e-02  0:05:45 1931
    70  1.3652e-02  2.7866e-02  9.7649e-03  6.5063e-01  1.3649e-02  0:04:36 1930
    71  1.2615e-02  2.6256e-02  8.7435e-03  6.2790e-01  1.2611e-02  0:03:41 1929
    72  1.1479e-02  2.4811e-02  7.8406e-03  6.0056e-01  1.1475e-02  0:02:57 1928
    73  1.0280e-02  2.3552e-02  7.1434e-03  5.7211e-01  1.0274e-02  0:02:21 1927
    74  9.0560e-03  2.2532e-02  6.6831e-03  5.4506e-01  9.0493e-03  0:01:53 1926
    75  7.8861e-03  2.1858e-02  6.4424e-03  5.2322e-01  7.8777e-03  0:01:30 1925
    76  6.8892e-03  2.1559e-02  6.4165e-03  5.0796e-01  6.8786e-03  0:01:12 1924
    77  6.2704e-03  2.1831e-02  6.5869e-03  4.9877e-01  6.2567e-03  0:00:58 1923

  iter  continuity  x-velocity  y-velocity  z-velocity      energy     time/iter
    78  6.1878e-03  2.2239e-02  6.9201e-03  4.9744e-01  6.1699e-03  0:00:46 1922
    79  6.6899e-03  2.2790e-02  7.3274e-03  5.0327e-01  6.6674e-03  0:07:01 1921
    80  7.6807e-03  2.3542e-02  7.7664e-03  5.1742e-01  7.6536e-03  0:05:37 1920
    81  8.9845e-03  2.4407e-02  8.2139e-03  5.3693e-01  8.9526e-03  0:04:29 1919
    82  1.0453e-02  2.5328e-02  8.6376e-03  5.5999e-01  1.0416e-02  0:03:35 1918
    83  1.1979e-02  2.6243e-02  9.0054e-03  5.8045e-01  1.1935e-02  0:02:52 1917
    84  1.3492e-02  2.7110e-02  9.3152e-03  5.9783e-01  1.3441e-02  0:02:18 1916
    85  1.4954e-02  2.7877e-02  9.5538e-03  6.0878e-01  1.4896e-02  0:01:50 1915
    86  1.6339e-02  2.8512e-02  9.7240e-03  6.1334e-01  1.6272e-02  0:01:28 1914
    87  1.7599e-02  2.8998e-02  9.8150e-03  6.1134e-01  1.7523e-02  0:07:33 1913
    88  1.8705e-02  2.9323e-02  9.8322e-03  6.0277e-01  1.8619e-02  0:06:02 1912

  iter  continuity  x-velocity  y-velocity  z-velocity      energy     time/iter
    89  1.9643e-02  2.9425e-02  9.8404e-03  5.8846e-01  1.9547e-02  0:04:50 1911
    90  2.0412e-02  2.9329e-02  9.8188e-03  5.6829e-01  2.0305e-02  0:03:52 1910
    91  2.1009e-02  2.9036e-02  9.7757e-03  5.4305e-01  2.0891e-02  0:03:05 1909
    92  2.1441e-02  2.8547e-02  9.7620e-03  5.1243e-01  2.1312e-02  0:02:28 1908
    93  2.1689e-02  2.7880e-02  9.8228e-03  4.7836e-01  2.1549e-02  0:01:58 1907
    94  2.1753e-02  2.7044e-02  9.9973e-03  4.4327e-01  2.1603e-02  0:07:56 1906
    95  2.1629e-02  2.6072e-02  1.0270e-02  4.0921e-01  2.1467e-02  0:06:20 1905
    96  2.1329e-02  2.5027e-02  1.0727e-02  3.7919e-01  2.1158e-02  0:05:04 1904
    97  2.0870e-02  2.3913e-02  1.1368e-02  3.5720e-01  2.0688e-02  0:04:03 1903
    98  2.0262e-02  2.2882e-02  1.2125e-02  3.4560e-01  2.0071e-02  0:03:14 1902
    99  1.9515e-02  2.1859e-02  1.3052e-02  3.4593e-01  1.9316e-02  0:02:36 1901

  iter  continuity  x-velocity  y-velocity  z-velocity      energy     time/iter
   100  1.8641e-02  2.0962e-02  1.4088e-02  3.5570e-01  1.8434e-02  0:02:04 1900
   101  1.7676e-02  2.0269e-02  1.5210e-02  3.7385e-01  1.7463e-02  0:07:59 1899
   102  1.6647e-02  2.0040e-02  1.6391e-02  3.9854e-01  1.6428e-02  0:06:23 1898
   103  1.5545e-02  2.0089e-02  1.7640e-02  4.2544e-01  1.5321e-02  0:05:06 1897
   104  1.4376e-02  2.0027e-02  1.8900e-02  4.5154e-01  1.4149e-02  0:04:05 1896
   105  1.3187e-02  2.0527e-02  2.0116e-02  4.7512e-01  1.2958e-02  0:03:16 1895
   106  1.1997e-02  2.1419e-02  2.1268e-02  4.9257e-01  1.1767e-02  0:02:37 1894
   107  1.0820e-02  2.2584e-02  2.2351e-02  5.0570e-01  1.0591e-02  0:02:05 1893
   108  9.6812e-03  2.3948e-02  2.3333e-02  5.1403e-01  9.4555e-03  0:01:40 1892
   109  8.6106e-03  2.5355e-02  2.4196e-02  5.1589e-01  8.3909e-03  0:07:38 1891
   110  7.6352e-03  2.6912e-02  2.4909e-02  5.0946e-01  7.4252e-03  0:06:06 1890

  iter  continuity  x-velocity  y-velocity  z-velocity      energy     time/iter
   111  6.8013e-03  2.8502e-02  2.5461e-02  4.9626e-01  6.6063e-03  0:04:53 1889
   112  6.1481e-03  3.0083e-02  2.5847e-02  4.7906e-01  5.9750e-03  0:03:54 1888
   113  5.6549e-03  3.1617e-02  2.6068e-02  4.5663e-01  5.5097e-03  0:03:07 1887
   114  5.3280e-03  3.3063e-02  2.6127e-02  4.3071e-01  5.2152e-03  0:02:30 1886
   115  5.2494e-03  3.4389e-02  2.6029e-02  4.0174e-01  5.1718e-03  0:02:00 1885
   116  5.3674e-03  3.5567e-02  2.5782e-02  3.6900e-01  5.3221e-03  0:07:53 1884
   117  5.6532e-03  3.6580e-02  2.5394e-02  3.3510e-01  5.6344e-03  0:06:18 1883
   118  6.0635e-03  3.7426e-02  2.4875e-02  3.0170e-01  6.0639e-03  0:05:02 1882
   119  6.5364e-03  3.8090e-02  2.4237e-02  2.6956e-01  6.5494e-03  0:04:02 1881
   120  7.0057e-03  3.8565e-02  2.3495e-02  2.4051e-01  7.0260e-03  0:03:13 1880
   121  7.4377e-03  3.8866e-02  2.2655e-02  2.1757e-01  7.4616e-03  0:02:34 1879

  iter  continuity  x-velocity  y-velocity  z-velocity      energy     time/iter
   122  7.8443e-03  3.9011e-02  2.1727e-02  2.0323e-01  7.8688e-03  0:02:03 1878
   123  8.2304e-03  3.8978e-02  2.0728e-02  1.9884e-01  8.2533e-03  0:07:54 1877
   124  8.5576e-03  3.8759e-02  1.9675e-02  2.0542e-01  8.5772e-03  0:06:19 1876
   125  8.8276e-03  3.8366e-02  1.8580e-02  2.2114e-01  8.8428e-03  0:05:03 1875
   126  9.0416e-03  3.7814e-02  1.7456e-02  2.4330e-01  9.0514e-03  0:04:02 1874
   127  9.1884e-03  3.7103e-02  1.6328e-02  2.6928e-01  9.1924e-03  0:03:14 1873
   128  9.2716e-03  3.6290e-02  1.5205e-02  2.9746e-01  9.2695e-03  0:02:35 1872
   129  9.2913e-03  3.5440e-02  1.4105e-02  3.2590e-01  9.2829e-03  0:02:04 1871
   130  9.2580e-03  3.4629e-02  1.3061e-02  3.5426e-01  9.2436e-03  0:01:39 1870
   131  9.1647e-03  3.3381e-02  1.2191e-02  3.8072e-01  9.1442e-03  0:07:33 1869
   132  8.9909e-03  3.1999e-02  1.1402e-02  4.0559e-01  8.9644e-03  0:06:02 1868

  iter  continuity  x-velocity  y-velocity  z-velocity      energy     time/iter
   133  8.7740e-03  3.0747e-02  1.0664e-02  4.2739e-01  8.7418e-03  0:04:50 1867
   134  8.5192e-03  2.9580e-02  1.0034e-02  4.4628e-01  8.4819e-03  0:03:52 1866
   135  8.2134e-03  2.8427e-02  9.5633e-03  4.6188e-01  8.1715e-03  0:03:05 1865
   136  7.8605e-03  2.7206e-02  9.2941e-03  4.7468e-01  7.8145e-03  0:02:28 1864
   137  7.4849e-03  2.5953e-02  9.2060e-03  4.8409e-01  7.4354e-03  0:01:58 1863
   138  7.1167e-03  2.4799e-02  9.2443e-03  4.9042e-01  7.0644e-03  0:07:47 1862
   139  6.7653e-03  2.3789e-02  9.3700e-03  4.9438e-01  6.7112e-03  0:06:13 1861
   140  6.4460e-03  2.2977e-02  9.5293e-03  4.9600e-01  6.3913e-03  0:04:59 1860
   141  6.1685e-03  2.2218e-02  9.7972e-03  4.9535e-01  6.1143e-03  0:03:59 1859
   142  5.9331e-03  2.1678e-02  9.9911e-03  4.9307e-01  5.8808e-03  0:03:11 1858
   143  5.7840e-03  2.1370e-02  1.0225e-02  4.8830e-01  5.7351e-03  0:02:33 1857

  iter  continuity  x-velocity  y-velocity  z-velocity      energy     time/iter
   144  5.7580e-03  2.1127e-02  1.0472e-02  4.8087e-01  5.7134e-03  0:02:02 1856
   145  5.8564e-03  2.0963e-02  1.0660e-02  4.7103e-01  5.8168e-03  0:07:49 1855
   146  6.0558e-03  2.0828e-02  1.0792e-02  4.5954e-01  6.0214e-03  0:06:15 1854
   147  6.4787e-03  2.0775e-02  1.0863e-02  4.4603e-01  6.4494e-03  0:05:00 1853
   148  6.5768e-03  2.0798e-02  1.0871e-02  4.3009e-01  6.5519e-03  0:04:00 1852
   149  6.7696e-03  2.0890e-02  1.0806e-02  4.1088e-01  6.7486e-03  0:03:12 1851
   150  6.9851e-03  2.1022e-02  1.0687e-02  3.8873e-01  6.9673e-03  0:02:33 1850
   151  7.2355e-03  2.1100e-02  1.0502e-02  3.6299e-01  7.2202e-03  0:08:12 1849
   152  7.4695e-03  2.1197e-02  1.0271e-02  3.3564e-01  7.4561e-03  0:06:34 1848
   153  7.7131e-03  2.1331e-02  9.9945e-03  3.0813e-01  7.7009e-03  0:05:15 1847
   154  7.9456e-03  2.1381e-02  9.6719e-03  2.7964e-01  7.9341e-03  0:04:12 1846

  iter  continuity  x-velocity  y-velocity  z-velocity      energy     time/iter
   155  8.1892e-03  2.1376e-02  9.3118e-03  2.5060e-01  8.1778e-03  0:03:21 1845
   156  8.4426e-03  2.1416e-02  8.9150e-03  2.2218e-01  8.4309e-03  0:02:41 1844
   157  8.7044e-03  2.1445e-02  8.4915e-03  1.9545e-01  8.6920e-03  0:02:09 1843
   158  8.8900e-03  2.1227e-02  8.0478e-03  1.7448e-01  8.8769e-03  0:07:51 1842
   159  9.0667e-03  2.1072e-02  7.5886e-03  1.6189e-01  9.0526e-03  0:06:17 1841
   160  9.2248e-03  2.1012e-02  7.1168e-03  1.6196e-01  9.2095e-03  0:05:01 1840
   161  9.3872e-03  2.0727e-02  6.6358e-03  1.7933e-01  9.3706e-03  0:04:01 1839
   162  9.5875e-03  2.0440e-02  6.1794e-03  2.0513e-01  9.5695e-03  0:03:13 1838
   163  9.8545e-03  2.0402e-02  5.7369e-03  2.2197e-01  9.8349e-03  0:02:34 1837
   164  1.0141e-02  2.0068e-02  5.3069e-03  2.3480e-01  1.0120e-02  0:02:03 1836
   165  1.0414e-02  1.9744e-02  4.9283e-03  2.5537e-01  1.0391e-02  0:07:45 1835

  iter  continuity  x-velocity  y-velocity  z-velocity      energy     time/iter
   166  1.0753e-02  1.9774e-02  4.6137e-03  2.7713e-01  1.0729e-02  0:06:12 1834
   167  1.1180e-02  1.9556e-02  4.3656e-03  2.9146e-01  1.1154e-02  0:04:58 1833
   168  1.1644e-02  1.9101e-02  4.1462e-03  3.1172e-01  1.1616e-02  0:03:58 1832
   169  1.2157e-02  1.9230e-02  4.0015e-03  3.3884e-01  1.2127e-02  0:03:10 1831
   170  1.2701e-02  1.9405e-02  3.9176e-03  3.5358e-01  1.2670e-02  0:02:32 1830
   171  1.3256e-02  1.8958e-02  3.9166e-03  3.6872e-01  1.3223e-02  0:02:02 1829
   172  1.3901e-02  1.8880e-02  4.0363e-03  4.1105e-01  1.3866e-02  0:07:43 1828
   173  1.4489e-02  1.9221e-02  4.1756e-03  4.8070e-01  1.4452e-02  0:06:10 1827
   174  1.5050e-02  1.9242e-02  4.3118e-03  5.6787e-01  1.5011e-02  0:04:56 1826
   175  1.5743e-02  1.8933e-02  4.4981e-03  6.6035e-01  1.5702e-02  0:03:57 1825
   176  1.6527e-02  1.9147e-02  4.8765e-03  7.3268e-01  1.6484e-02  0:03:09 1824

  iter  continuity  x-velocity  y-velocity  z-velocity      energy     time/iter
   177  1.7156e-02  1.9573e-02  5.1985e-03  7.4800e-01  1.7110e-02  0:02:31 1823
   178  1.7885e-02  1.9456e-02  5.4195e-03  7.3286e-01  1.7837e-02  0:02:01 1822
   179  1.8894e-02  1.9276e-02  5.7707e-03  7.4211e-01  1.8843e-02  0:07:41 1821
   180  1.9697e-02  1.9673e-02  6.2059e-03  8.1501e-01  1.9645e-02  0:06:09 1820
   181  2.0424e-02  2.0225e-02  6.5873e-03  8.0821e-01  2.0369e-02  0:04:55 1819
   182  2.1369e-02  2.0228e-02  7.0107e-03  8.3139e-01  2.1312e-02  0:03:56 1818
   183  2.2099e-02  2.0313e-02  7.4174e-03  9.2789e-01  2.2039e-02  0:03:08 1817
   184  2.2744e-02  2.0504e-02  7.9151e-03  1.0034e+00  2.2682e-02  0:02:31 1816
   185  2.3446e-02  2.1020e-02  8.4347e-03  1.0541e+00  2.3382e-02  0:02:00 1815
   186  2.3876e-02  2.1109e-02  8.9658e-03  1.1313e+00  2.3810e-02  0:07:39 1814
   187  2.4293e-02  2.1186e-02  9.5762e-03  1.2314e+00  2.4226e-02  0:06:07 1813

  iter  continuity  x-velocity  y-velocity  z-velocity      energy     time/iter
   188  2.4642e-02  2.1532e-02  1.0208e-02  1.3370e+00  2.4574e-02  0:04:53 1812
   189  2.4537e-02  2.1922e-02  1.0921e-02  1.4334e+00  2.4468e-02  0:03:55 1811
   190  2.4523e-02  2.2081e-02  1.1603e-02  1.5296e+00  2.4454e-02  0:03:08 1810
   191  2.4229e-02  2.2034e-02  1.2271e-02  1.6732e+00  2.4161e-02  0:02:30 1809
   192  2.4009e-02  2.2256e-02  1.3012e-02  1.8694e+00  2.3942e-02  0:02:00 1808
   193  2.4074e-02  2.2599e-02  1.3608e-02  2.0982e+00  2.4008e-02  0:07:37 1807
   194  2.4581e-02  2.3177e-02  1.4208e-02  2.4584e+00  2.4516e-02  0:06:06 1806
   195  2.5818e-02  2.4117e-02  1.4499e-02  2.8725e+00  2.5756e-02  0:04:52 1805
   196  2.7542e-02  2.5192e-02  1.4662e-02  3.3059e+00  2.7481e-02  0:03:54 1804
   197  2.8761e-02  2.6546e-02  1.4909e-02  3.7908e+00  2.8703e-02  0:03:07 1803
   198  2.8405e-02  2.7223e-02  1.5644e-02  3.9456e+00  2.8351e-02  0:02:29 1802

  iter  continuity  x-velocity  y-velocity  z-velocity      energy     time/iter
   199  2.7327e-02  2.7458e-02  1.6795e-02  3.9090e+00  2.7277e-02  0:01:59 1801
   200  2.5392e-02  2.7078e-02  1.7888e-02  3.8578e+00  2.5344e-02  0:07:36 1800
   201  2.2839e-02  2.6365e-02  1.8773e-02  3.7744e+00  2.2792e-02  0:06:04 1799
   202  1.9698e-02  2.5926e-02  1.9122e-02  3.7270e+00  1.9652e-02  0:04:51 1798
   203  1.6404e-02  2.6388e-02  1.9112e-02  3.7049e+00  1.6358e-02  0:03:53 1797
   204  1.3466e-02  2.7674e-02  1.9089e-02  3.7038e+00  1.3419e-02  0:03:06 1796
   205  1.1824e-02  2.9406e-02  1.9150e-02  3.5860e+00  1.1777e-02  0:02:29 1795
   206  1.1967e-02  3.1148e-02  1.9215e-02  3.3971e+00  1.1925e-02  0:01:59 1794
   207  1.3155e-02  3.2430e-02  1.9179e-02  3.1816e+00  1.3120e-02  0:07:34 1793
   208  1.4350e-02  3.2505e-02  1.8819e-02  2.9668e+00  1.4320e-02  0:06:03 1792
   209  1.5308e-02  3.1987e-02  1.8193e-02  2.8127e+00  1.5280e-02  0:04:50 1791

  iter  continuity  x-velocity  y-velocity  z-velocity      energy     time/iter
   210  1.6043e-02  3.0846e-02  1.7465e-02  2.7322e+00  1.6016e-02  0:03:52 1790
   211  1.5675e-02  2.9333e-02  1.6688e-02  2.6318e+00  1.5649e-02  0:03:05 1789
   212  1.4815e-02  2.7616e-02  1.5846e-02  2.5098e+00  1.4790e-02  0:02:28 1788
   213  1.3449e-02  2.6079e-02  1.5102e-02  2.3670e+00  1.3425e-02  0:01:59 1787
   214  1.2105e-02  2.4775e-02  1.4385e-02  2.2159e+00  1.2081e-02  0:07:32 1786
   215  1.1089e-02  2.3892e-02  1.3634e-02  2.0901e+00  1.1067e-02  0:06:01 1785
   216  1.0332e-02  2.3029e-02  1.2929e-02  1.9798e+00  1.0312e-02  0:04:49 1784
   217  1.0022e-02  2.2236e-02  1.2265e-02  1.8922e+00  1.0003e-02  0:03:51 1783
   218  1.0126e-02  2.1535e-02  1.1621e-02  1.8336e+00  1.0110e-02  0:03:05 1782
   219  1.0348e-02  2.0942e-02  1.0973e-02  1.7921e+00  1.0332e-02  0:02:28 1781
   220  1.0497e-02  2.0469e-02  1.0363e-02  1.7696e+00  1.0483e-02  0:01:58 1780

  iter  continuity  x-velocity  y-velocity  z-velocity      energy     time/iter
   221  1.0585e-02  1.9983e-02  9.8126e-03  1.7588e+00  1.0572e-02  0:07:30 1779
   222  1.0574e-02  1.9634e-02  9.2473e-03  1.7424e+00  1.0562e-02  0:06:00 1778
   223  1.0466e-02  1.9294e-02  8.7024e-03  1.7174e+00  1.0455e-02  0:04:48 1777
   224  1.0280e-02  1.8991e-02  8.2189e-03  1.6957e+00  1.0269e-02  0:03:50 1776
   225  9.8798e-03  1.8683e-02  7.8113e-03  1.6547e+00  9.8690e-03  0:03:04 1775
   226  9.3928e-03  1.8376e-02  7.5324e-03  1.6067e+00  9.3824e-03  0:02:27 1774
   227  8.9961e-03  1.8160e-02  7.1511e-03  1.5497e+00  8.9860e-03  0:01:58 1773
   228  8.6847e-03  1.7978e-02  6.8125e-03  1.4991e+00  8.6749e-03  0:07:28 1772
   229  8.5335e-03  1.7844e-02  6.5410e-03  1.4409e+00  8.5239e-03  0:05:59 1771
   230  8.5376e-03  1.7742e-02  6.3231e-03  1.3947e+00  8.5282e-03  0:04:47 1770
   231  8.5322e-03  1.7602e-02  6.1520e-03  1.3544e+00  8.5229e-03  0:03:49 1769

  iter  continuity  x-velocity  y-velocity  z-velocity      energy     time/iter
   232  8.4931e-03  1.7435e-02  6.0304e-03  1.3238e+00  8.4839e-03  0:03:03 1768
   233  8.4352e-03  1.7301e-02  5.9343e-03  1.3102e+00  8.4263e-03  0:02:27 1767
   234  8.3598e-03  1.7184e-02  5.8710e-03  1.2964e+00  8.3510e-03  0:01:57 1766
   235  8.3313e-03  1.7078e-02  5.8281e-03  1.2891e+00  8.3227e-03  0:07:27 1765
   236  8.2682e-03  1.6924e-02  5.7769e-03  1.3300e+00  8.2599e-03  0:05:57 1764
   237  8.2593e-03  1.6754e-02  5.7443e-03  1.3097e+00  8.2513e-03  0:04:46 1763
   238  8.3109e-03  1.6575e-02  5.7011e-03  1.2828e+00  8.3030e-03  0:03:48 1762
   239  8.3281e-03  1.6388e-02  5.6236e-03  1.2704e+00  8.3205e-03  0:03:03 1761
   240  8.3083e-03  1.6269e-02  5.5527e-03  1.2590e+00  8.3009e-03  0:08:18 1760
   241  8.3643e-03  1.6313e-02  5.5155e-03  1.2437e+00  8.3571e-03  0:06:38 1759
   242  8.3392e-03  1.6377e-02  5.4689e-03  1.2497e+00  8.3322e-03  0:05:18 1758

  iter  continuity  x-velocity  y-velocity  z-velocity      energy     time/iter
   243  8.3067e-03  1.6595e-02  5.4576e-03  1.2692e+00  8.2998e-03  0:04:15 1757
   244  8.3816e-03  1.6875e-02  5.5110e-03  1.3125e+00  8.3749e-03  0:03:23 1756
   245  8.3882e-03  1.7162e-02  5.6102e-03  1.3798e+00  8.3819e-03  0:02:43 1755
   246  8.4071e-03  1.7402e-02  5.6753e-03  1.4516e+00  8.4011e-03  0:02:10 1754
   247  8.4085e-03  1.7468e-02  5.6282e-03  1.5086e+00  8.4027e-03  0:07:35 1753
   248  8.3507e-03  1.7254e-02  5.4501e-03  1.5248e+00  8.3452e-03  0:06:03 1752
   249  8.2167e-03  1.6842e-02  5.1527e-03  1.5220e+00  8.2114e-03  0:04:51 1751
   250  8.3623e-03  1.6322e-02  4.8244e-03  1.4936e+00  8.3573e-03  0:03:52 1750
   251  8.4847e-03  1.5718e-02  4.4872e-03  1.5028e+00  8.4799e-03  0:03:06 1749
   252  8.5154e-03  1.5115e-02  4.1725e-03  1.4854e+00  8.5107e-03  0:02:29 1748
   253  8.6045e-03  1.4644e-02  3.9200e-03  1.4412e+00  8.5998e-03  0:01:59 1747

  iter  continuity  x-velocity  y-velocity  z-velocity      energy     time/iter
   254  8.5583e-03  1.4300e-02  3.9182e-03  1.4140e+00  8.5534e-03  0:01:35 1746
   255  8.3521e-03  1.4100e-02  3.8696e-03  1.3572e+00  8.3469e-03  0:07:05 1745
   256  7.7302e-03  1.3947e-02  3.8407e-03  1.3486e+00  7.7254e-03  0:05:40 1744
   257  7.1349e-03  1.3828e-02  3.8194e-03  1.3691e+00  7.1306e-03  0:04:32 1743
   258  6.7416e-03  1.3710e-02  3.7904e-03  1.3639e+00  6.7376e-03  0:03:37 1742
   259  6.3227e-03  1.3558e-02  3.7105e-03  1.3527e+00  6.3190e-03  0:02:54 1741
   260  5.9408e-03  1.3377e-02  3.6012e-03  1.3324e+00  5.9374e-03  0:02:19 1740
   261  5.6371e-03  1.3161e-02  3.4589e-03  1.2954e+00  5.6339e-03  0:01:51 1739
   262  5.3475e-03  1.2911e-02  3.3336e-03  1.2731e+00  5.3444e-03  0:07:16 1738
   263  5.1623e-03  1.2587e-02  3.1847e-03  1.2500e+00  5.1590e-03  0:05:49 1737
   264  4.9874e-03  1.2294e-02  3.0121e-03  1.2277e+00  4.9839e-03  0:04:39 1736

  iter  continuity  x-velocity  y-velocity  z-velocity      energy     time/iter
   265  4.6628e-03  1.1996e-02  2.8653e-03  1.2161e+00  4.6590e-03  0:03:43 1735
   266  4.3321e-03  1.1710e-02  2.7677e-03  1.2092e+00  4.3279e-03  0:02:58 1734
   267  4.1006e-03  1.1479e-02  2.7379e-03  1.2052e+00  4.0960e-03  0:02:23 1733
   268  3.9599e-03  1.1299e-02  2.7647e-03  1.2061e+00  3.9549e-03  0:01:54 1732
   269  3.8732e-03  1.1196e-02  2.8392e-03  1.2102e+00  3.8679e-03  0:07:17 1731
   270  3.9212e-03  1.1128e-02  2.9277e-03  1.2129e+00  3.9157e-03  0:05:50 1730
   271  4.0531e-03  1.1089e-02  3.0150e-03  1.2050e+00  4.0474e-03  0:04:40 1729
   272  4.0911e-03  1.1073e-02  3.1192e-03  1.2052e+00  4.0850e-03  0:03:44 1728
   273  4.1443e-03  1.1031e-02  3.1843e-03  1.2045e+00  4.1380e-03  0:02:59 1727
   274  4.2817e-03  1.0941e-02  3.2238e-03  1.2159e+00  4.2752e-03  0:02:23 1726
   275  4.3067e-03  1.0824e-02  3.2704e-03  1.2340e+00  4.2999e-03  0:01:54 1725

  iter  continuity  x-velocity  y-velocity  z-velocity      energy     time/iter
   276  4.3349e-03  1.0699e-02  3.3188e-03  1.2666e+00  4.3280e-03  0:07:16 1724
   277  4.2466e-03  1.0607e-02  3.3497e-03  1.2938e+00  4.2394e-03  0:05:49 1723
   278  4.2281e-03  1.0523e-02  3.3382e-03  1.3062e+00  4.2207e-03  0:04:39 1722
   279  4.1367e-03  1.0487e-02  3.3208e-03  1.3013e+00  4.1292e-03  0:03:43 1721
   280  4.1253e-03  1.0438e-02  3.3006e-03  1.3091e+00  4.1176e-03  0:02:58 1720
   281  4.2667e-03  1.0374e-02  3.2845e-03  1.2954e+00  4.2592e-03  0:02:23 1719
   282  4.4285e-03  1.0306e-02  3.2769e-03  1.2826e+00  4.4211e-03  0:01:54 1718
   283  4.3757e-03  1.0218e-02  3.2887e-03  1.2554e+00  4.3685e-03  0:07:14 1717
   284  4.3963e-03  1.0130e-02  3.3144e-03  1.2152e+00  4.3894e-03  0:05:47 1716
   285  4.5588e-03  1.0085e-02  3.3544e-03  1.1835e+00  4.5523e-03  0:04:38 1715
   286  4.5444e-03  1.0058e-02  3.4257e-03  1.1569e+00  4.5383e-03  0:03:42 1714

  iter  continuity  x-velocity  y-velocity  z-velocity      energy     time/iter
   287  4.5285e-03  1.0097e-02  3.5262e-03  1.1513e+00  4.5229e-03  0:02:58 1713
   288  4.5534e-03  1.0252e-02  3.6424e-03  1.1612e+00  4.5485e-03  0:02:22 1712
   289  4.4467e-03  1.0502e-02  3.8073e-03  1.1889e+00  4.4424e-03  0:01:54 1711
   290  4.3167e-03  1.0782e-02  3.9639e-03  1.2220e+00  4.3134e-03  0:07:13 1710
   291  4.1625e-03  1.1062e-02  4.1155e-03  1.2759e+00  4.1601e-03  0:05:46 1709
   292  3.9548e-03  1.1199e-02  4.2490e-03  1.3244e+00  3.9532e-03  0:04:37 1708
   293  4.0337e-03  1.1262e-02  4.3473e-03  1.3811e+00  4.0324e-03  0:03:41 1707
   294  4.3859e-03  1.1275e-02  4.4072e-03  1.4420e+00  4.3847e-03  0:02:57 1706
   295  4.8408e-03  1.1265e-02  4.4172e-03  1.4915e+00  4.8394e-03  0:02:21 1705
   296  5.1884e-03  1.1247e-02  4.3702e-03  1.5340e+00  5.1867e-03  0:01:53 1704
   297  5.2932e-03  1.1219e-02  4.2718e-03  1.5840e+00  5.2912e-03  0:07:11 1703

  iter  continuity  x-velocity  y-velocity  z-velocity      energy     time/iter
   298  5.1983e-03  1.1144e-02  4.1457e-03  1.6169e+00  5.1960e-03  0:05:45 1702
   299  4.7270e-03  1.1035e-02  4.0352e-03  1.6346e+00  4.7243e-03  0:04:36 1701
   300  4.3400e-03  1.0935e-02  3.9565e-03  1.8627e+00  4.3368e-03  0:03:40 1700
   301  4.1050e-03  1.0866e-02  3.9103e-03  1.9018e+00  4.1011e-03  0:02:56 1699
   302  4.0590e-03  1.0834e-02  3.9134e-03  1.8955e+00  4.0540e-03  0:02:21 1698
   303  4.1526e-03  1.0834e-02  3.9642e-03  1.9338e+00  4.1466e-03  0:07:32 1697
   304  4.2465e-03  1.0883e-02  4.0536e-03  1.9651e+00  4.2394e-03  0:06:01 1696
   305  4.3027e-03  1.0960e-02  4.1392e-03  1.9796e+00  4.2945e-03  0:04:49 1695
   306  4.3797e-03  1.1031e-02  4.2245e-03  1.9919e+00  4.3706e-03  0:03:51 1694
   307  4.4548e-03  1.1088e-02  4.2890e-03  1.9946e+00  4.4449e-03  0:03:05 1693
   308  4.4868e-03  1.1106e-02  4.3427e-03  1.9882e+00  4.4762e-03  0:02:28 1692

  iter  continuity  x-velocity  y-velocity  z-velocity      energy     time/iter
   309  4.4691e-03  1.1070e-02  4.3810e-03  1.9584e+00  4.4578e-03  0:01:58 1691
   310  4.3897e-03  1.0986e-02  4.3927e-03  1.9592e+00  4.3776e-03  0:07:12 1690
   311  4.2199e-03  1.0851e-02  4.4006e-03  1.9306e+00  4.2071e-03  0:05:46 1689
   312  3.9619e-03  1.0718e-02  4.4077e-03  1.9030e+00  3.9481e-03  0:04:36 1688
   313  3.7280e-03  1.0582e-02  4.4189e-03  1.8830e+00  3.7135e-03  0:03:41 1687
   314  3.5917e-03  1.0441e-02  4.4224e-03  1.8603e+00  3.5768e-03  0:02:57 1686
   315  3.5434e-03  1.0282e-02  4.4095e-03  1.8217e+00  3.5285e-03  0:02:21 1685
   316  3.5230e-03  1.0122e-02  4.3857e-03  1.8028e+00  3.5084e-03  0:01:53 1684
   317  3.4403e-03  9.9553e-03  4.3594e-03  1.7954e+00  3.4259e-03  0:07:07 1683
   318  3.2624e-03  9.8300e-03  4.3305e-03  1.8114e+00  3.2479e-03  0:05:41 1682
   319  3.0865e-03  9.7466e-03  4.2982e-03  1.8803e+00  3.0720e-03  0:04:33 1681

  iter  continuity  x-velocity  y-velocity  z-velocity      energy     time/iter
   320  3.0381e-03  9.6895e-03  4.2633e-03  1.9962e+00  3.0241e-03  0:03:38 1680
   321  3.1389e-03  9.6513e-03  4.2227e-03  2.1179e+00  3.1261e-03  0:02:54 1679
   322  3.2259e-03  9.6214e-03  4.1754e-03  2.1975e+00  3.2140e-03  0:02:19 1678
   323  3.3037e-03  9.5992e-03  4.1186e-03  2.2558e+00  3.2929e-03  0:01:52 1677
   324  3.3583e-03  9.5867e-03  4.0570e-03  2.2621e+00  3.3482e-03  0:01:29 1676
   325  3.3567e-03  9.5604e-03  3.9893e-03  2.2728e+00  3.3472e-03  0:06:46 1675
   326  3.2046e-03  9.5228e-03  3.9215e-03  2.2049e+00  3.1952e-03  0:05:25 1674
   327  3.0255e-03  9.4799e-03  3.8522e-03  2.1416e+00  3.0160e-03  0:04:20 1673
   328  2.9454e-03  9.4633e-03  3.7753e-03  2.1441e+00  2.9360e-03  0:03:28 1672
   329  3.0424e-03  9.4812e-03  3.6943e-03  2.1539e+00  3.0334e-03  0:02:46 1671
   330  3.2439e-03  9.5075e-03  3.6123e-03  2.1417e+00  3.2354e-03  0:02:13 1670

  iter  continuity  x-velocity  y-velocity  z-velocity      energy     time/iter
   331  3.4635e-03  9.5175e-03  3.5339e-03  2.0925e+00  3.4555e-03  0:01:46 1669
   332  3.5796e-03  9.4933e-03  3.4607e-03  2.0114e+00  3.5719e-03  0:06:58 1668
   333  3.6117e-03  9.4661e-03  3.3948e-03  1.9620e+00  3.6043e-03  0:05:35 1667
   334  3.8284e-03  9.4194e-03  3.3317e-03  1.9970e+00  3.8213e-03  0:04:27 1666
   335  3.6410e-03  9.3666e-03  3.2667e-03  1.9939e+00  3.6339e-03  0:03:34 1665
   336  3.4593e-03  9.3056e-03  3.1933e-03  2.0692e+00  3.4522e-03  0:02:51 1664
   337  3.2106e-03  9.2475e-03  3.1097e-03  2.1799e+00  3.2031e-03  0:02:17 1663
   338  3.0437e-03  9.1912e-03  3.0049e-03  2.3279e+00  3.0357e-03  0:01:49 1662
   339  2.8789e-03  9.0942e-03  2.8791e-03  2.4442e+00  2.8701e-03  0:07:00 1661
   340  2.8549e-03  9.0076e-03  2.7548e-03  2.5173e+00  2.8455e-03  0:05:35 1660
   341  2.8501e-03  8.9318e-03  2.6397e-03  2.5543e+00  2.8402e-03  0:04:28 1659

  iter  continuity  x-velocity  y-velocity  z-velocity      energy     time/iter
   342  3.0116e-03  8.8671e-03  2.5391e-03  2.5609e+00  3.0015e-03  0:03:34 1658
   343  3.2465e-03  8.7912e-03  2.4512e-03  2.4977e+00  3.2365e-03  0:02:51 1657
   344  3.4575e-03  8.7006e-03  2.4247e-03  2.4194e+00  3.4474e-03  0:07:48 1656
   345  3.6079e-03  8.6132e-03  2.5097e-03  2.3615e+00  3.5977e-03  0:06:14 1655
   346  3.6890e-03  8.4747e-03  2.4087e-03  2.3413e+00  3.6782e-03  0:04:59 1654
   347  3.8021e-03  8.3717e-03  2.4341e-03  2.3468e+00  3.7911e-03  0:03:59 1653
   348  3.7926e-03  8.2687e-03  2.5319e-03  2.3753e+00  3.7810e-03  0:03:11 1652
   349  3.6555e-03  8.2018e-03  2.6375e-03  2.3842e+00  3.6428e-03  0:02:33 1651
   350  3.4341e-03  8.1378e-03  2.6748e-03  2.4197e+00  3.4199e-03  0:02:02 1650
   351  3.2001e-03  8.0813e-03  2.6879e-03  2.4502e+00  3.1839e-03  0:07:08 1649
   352  3.0557e-03  8.0404e-03  2.7014e-03  2.4891e+00  3.0377e-03  0:05:42 1648

  iter  continuity  x-velocity  y-velocity  z-velocity      energy     time/iter
   353  2.9834e-03  8.0040e-03  2.7087e-03  2.5432e+00  2.9637e-03  0:04:33 1647
   354  3.0349e-03  7.9743e-03  2.7096e-03  2.5793e+00  3.0141e-03  0:03:39 1646
   355  3.1763e-03  7.9422e-03  2.7047e-03  2.6026e+00  3.1549e-03  0:02:55 1645
   356  3.3460e-03  7.8881e-03  2.6999e-03  2.6088e+00  3.3242e-03  0:02:20 1644
   357  3.4878e-03  7.8118e-03  2.7179e-03  2.5991e+00  3.4656e-03  0:01:52 1643
   358  3.6051e-03  7.7212e-03  2.7452e-03  2.5529e+00  3.5825e-03  0:06:58 1642
   359  3.6829e-03  7.6172e-03  2.7784e-03  2.4514e+00  3.6598e-03  0:05:34 1641
   360  3.6942e-03  7.5068e-03  2.8240e-03  2.3291e+00  3.6704e-03  0:04:27 1640
   361  3.6538e-03  7.3881e-03  2.8829e-03  2.2167e+00  3.6291e-03  0:03:33 1639
   362  3.5991e-03  7.2819e-03  2.9560e-03  2.1506e+00  3.5736e-03  0:02:51 1638
   363  3.5625e-03  7.1868e-03  3.0385e-03  2.1205e+00  3.5365e-03  0:02:16 1637

  iter  continuity  x-velocity  y-velocity  z-velocity      energy     time/iter
   364  3.5242e-03  7.1065e-03  3.1242e-03  2.0782e+00  3.4977e-03  0:01:49 1636
   365  3.4783e-03  7.0425e-03  3.2125e-03  2.0642e+00  3.4515e-03  0:06:54 1635
   366  3.4157e-03  7.0076e-03  3.2996e-03  2.0612e+00  3.3886e-03  0:05:31 1634
   367  3.3409e-03  6.9922e-03  3.3828e-03  2.0643e+00  3.3136e-03  0:04:25 1633
   368  3.2494e-03  6.9812e-03  3.4613e-03  2.0818e+00  3.2218e-03  0:03:32 1632
   369  3.1533e-03  6.9773e-03  3.5335e-03  2.1093e+00  3.1255e-03  0:02:49 1631
   370  3.0806e-03  6.9828e-03  3.5945e-03  2.1471e+00  3.0529e-03  0:02:15 1630
   371  3.0552e-03  6.9945e-03  3.6444e-03  2.1677e+00  3.0281e-03  0:01:48 1629
   372  3.0901e-03  7.0134e-03  3.6831e-03  2.1838e+00  3.0643e-03  0:06:52 1628
   373  3.1409e-03  7.0324e-03  3.7125e-03  2.2016e+00  3.1166e-03  0:05:29 1627
   374  3.1745e-03  7.0518e-03  3.7359e-03  2.2176e+00  3.1516e-03  0:04:23 1626

  iter  continuity  x-velocity  y-velocity  z-velocity      energy     time/iter
   375  3.1656e-03  7.0675e-03  3.7536e-03  2.2397e+00  3.1439e-03  0:03:31 1625
   376  3.1286e-03  7.0749e-03  3.7638e-03  2.2746e+00  3.1080e-03  0:02:48 1624
   377  3.0656e-03  7.0789e-03  3.7650e-03  2.2947e+00  3.0460e-03  0:02:15 1623
   378  3.0013e-03  7.0800e-03  3.7578e-03  2.2862e+00  2.9827e-03  0:01:48 1622
   379  2.9309e-03  7.0780e-03  3.7417e-03  2.2787e+00  2.9133e-03  0:06:50 1621
   380  2.8830e-03  7.0804e-03  3.7144e-03  2.2614e+00  2.8665e-03  0:05:28 1620
   381  2.8472e-03  7.0848e-03  3.6744e-03  2.2293e+00  2.8318e-03  0:04:22 1619
   382  2.8403e-03  7.0859e-03  3.6264e-03  2.2029e+00  2.8261e-03  0:03:30 1618
   383  2.8540e-03  7.0875e-03  3.5718e-03  2.1865e+00  2.8409e-03  0:02:48 1617
   384  2.8714e-03  7.0902e-03  3.5131e-03  2.0951e+00  2.8593e-03  0:02:14 1616
   385  2.7799e-03  7.0875e-03  3.4526e-03  2.0567e+00  2.7682e-03  0:01:47 1615

  iter  continuity  x-velocity  y-velocity  z-velocity      energy     time/iter
   386  2.6625e-03  7.0779e-03  3.3869e-03  2.0337e+00  2.6510e-03  0:06:48 1614
   387  2.4929e-03  7.0559e-03  3.3118e-03  2.0265e+00  2.4812e-03  0:05:27 1613
   388  2.3005e-03  7.0197e-03  3.2308e-03  2.0296e+00  2.2884e-03  0:04:21 1612
   389  2.1297e-03  6.9658e-03  3.1458e-03  2.0612e+00  2.1171e-03  0:03:29 1611
   390  2.0065e-03  6.8969e-03  3.0528e-03  2.1452e+00  1.9933e-03  0:02:47 1610
   391  1.9345e-03  6.8163e-03  2.9533e-03  2.2529e+00  1.9208e-03  0:02:13 1609
   392  1.9097e-03  6.7241e-03  2.8525e-03  2.3883e+00  1.8957e-03  0:01:47 1608
   393  1.9077e-03  6.6257e-03  2.7557e-03  2.5328e+00  1.8934e-03  0:06:47 1607
   394  1.9104e-03  6.5349e-03  2.6692e-03  2.6753e+00  1.8958e-03  0:05:25 1606
   395  1.9126e-03  6.4488e-03  2.5906e-03  2.8074e+00  1.8975e-03  0:04:20 1605
   396  1.8950e-03  6.3611e-03  2.5190e-03  2.9094e+00  1.8791e-03  0:03:28 1604

  iter  continuity  x-velocity  y-velocity  z-velocity      energy     time/iter
   397  1.8394e-03  6.2720e-03  2.4532e-03  2.9812e+00  1.8224e-03  0:02:46 1603
   398  1.7625e-03  6.1915e-03  2.3965e-03  3.0395e+00  1.7441e-03  0:02:13 1602
   399  1.6966e-03  6.1236e-03  2.3472e-03  3.0497e+00  1.6767e-03  0:01:46 1601
   400  1.6553e-03  6.0582e-03  2.3050e-03  3.0255e+00  1.6339e-03  0:01:25 1600
   401  1.6534e-03  5.9934e-03  2.2700e-03  2.9782e+00  1.6308e-03  0:06:28 1599
   402  1.6715e-03  5.9284e-03  2.2424e-03  2.9023e+00  1.6480e-03  0:05:10 1598
   403  1.7067e-03  5.8695e-03  2.2212e-03  2.8165e+00  1.6823e-03  0:04:08 1597
   404  1.7528e-03  5.8158e-03  2.2079e-03  2.7134e+00  1.7277e-03  0:03:18 1596
   405  1.8068e-03  5.7711e-03  2.2065e-03  2.5993e+00  1.7808e-03  0:02:38 1595
   406  1.8685e-03  5.7347e-03  2.2182e-03  2.4816e+00  1.8419e-03  0:02:07 1594
   407  1.9407e-03  5.7003e-03  2.2425e-03  2.3733e+00  1.9135e-03  0:01:41 1593

  iter  continuity  x-velocity  y-velocity  z-velocity      energy     time/iter
   408  2.0225e-03  5.6751e-03  2.2774e-03  2.2826e+00  1.9948e-03  0:06:39 1592
   409  2.1110e-03  5.6581e-03  2.3228e-03  2.2044e+00  2.0829e-03  0:05:19 1591
   410  2.1992e-03  5.6434e-03  2.3763e-03  2.1385e+00  2.1707e-03  0:04:15 1590
   411  2.2827e-03  5.6334e-03  2.4390e-03  2.0920e+00  2.2537e-03  0:03:24 1589
   412  2.3546e-03  5.6324e-03  2.5098e-03  2.0601e+00  2.3250e-03  0:02:43 1588
   413  2.4151e-03  5.6389e-03  2.5869e-03  2.0293e+00  2.3848e-03  0:02:10 1587
   414  2.4648e-03  5.6483e-03  2.6689e-03  2.0101e+00  2.4337e-03  0:01:44 1586
   415  2.5045e-03  5.6656e-03  2.7551e-03  1.9938e+00  2.4726e-03  0:06:40 1585
   416  2.5370e-03  5.6894e-03  2.8433e-03  1.9828e+00  2.5044e-03  0:05:20 1584
   417  2.5609e-03  5.7168e-03  2.9317e-03  1.9755e+00  2.5275e-03  0:04:16 1583
   418  2.5882e-03  5.7482e-03  3.0214e-03  1.9645e+00  2.5540e-03  0:03:25 1582

  iter  continuity  x-velocity  y-velocity  z-velocity      energy     time/iter
   419  2.6238e-03  5.7819e-03  3.1070e-03  1.9630e+00  2.5891e-03  0:02:44 1581
   420  2.6644e-03  5.8189e-03  3.1902e-03  1.9664e+00  2.6293e-03  0:02:11 1580
   421  2.7111e-03  5.8586e-03  3.2729e-03  1.9725e+00  2.6757e-03  0:01:45 1579
   422  2.7445e-03  5.8978e-03  3.3550e-03  1.9760e+00  2.7088e-03  0:06:39 1578
   423  2.7769e-03  5.9409e-03  3.4339e-03  1.9740e+00  2.7410e-03  0:05:19 1577
   424  2.7979e-03  5.9870e-03  3.5103e-03  1.9618e+00  2.7617e-03  0:04:15 1576
   425  2.8010e-03  6.0296e-03  3.5849e-03  1.9418e+00  2.7643e-03  0:03:24 1575
   426  2.7969e-03  6.0668e-03  3.6587e-03  1.9114e+00  2.7597e-03  0:02:43 1574
   427  2.7766e-03  6.0976e-03  3.7321e-03  1.8736e+00  2.7388e-03  0:02:10 1573
   428  2.7501e-03  6.1358e-03  3.7920e-03  1.8325e+00  2.7118e-03  0:01:44 1572
   429  2.7292e-03  6.1776e-03  3.8436e-03  1.7883e+00  2.6903e-03  0:01:23 1571

  iter  continuity  x-velocity  y-velocity  z-velocity      energy     time/iter
   430  2.7102e-03  6.2235e-03  3.8935e-03  1.7415e+00  2.6710e-03  0:06:21 1570
   431  2.6903e-03  6.2718e-03  3.9387e-03  1.6876e+00  2.6508e-03  0:05:04 1569
   432  2.6674e-03  6.3204e-03  3.9803e-03  1.6297e+00  2.6277e-03  0:04:03 1568
   433  2.6525e-03  6.3673e-03  4.0114e-03  1.5771e+00  2.6127e-03  0:03:15 1567
   434  2.6410e-03  6.4068e-03  4.0367e-03  1.5253e+00  2.6013e-03  0:02:36 1566
   435  2.6109e-03  6.4365e-03  4.0594e-03  1.4740e+00  2.5711e-03  0:02:04 1565
   436  2.5754e-03  6.4521e-03  4.0779e-03  1.4244e+00  2.5355e-03  0:01:39 1564
   437  2.5442e-03  6.4685e-03  4.0908e-03  1.3763e+00  2.5042e-03  0:06:32 1563
   438  2.5110e-03  6.4867e-03  4.0991e-03  1.3307e+00  2.4710e-03  0:05:13 1562
   439  2.4760e-03  6.5049e-03  4.1034e-03  1.2872e+00  2.4361e-03  0:04:11 1561
   440  2.4321e-03  6.5239e-03  4.1035e-03  1.2472e+00  2.3921e-03  0:03:20 1560

  iter  continuity  x-velocity  y-velocity  z-velocity      energy     time/iter
   441  2.3772e-03  6.5373e-03  4.1008e-03  1.2088e+00  2.3370e-03  0:02:40 1559
   442  2.3224e-03  6.5470e-03  4.0946e-03  1.1745e+00  2.2819e-03  0:02:08 1558
   443  2.2678e-03  6.5602e-03  4.0836e-03  1.1413e+00  2.2271e-03  0:01:42 1557
   444  2.2078e-03  6.5567e-03  4.0694e-03  1.1084e+00  2.1668e-03  0:06:33 1556
   445  2.1480e-03  6.5510e-03  4.0530e-03  1.0789e+00  2.1067e-03  0:05:14 1555
   446  2.0891e-03  6.5451e-03  4.0323e-03  1.0509e+00  2.0475e-03  0:04:11 1554
   447  2.0316e-03  6.5365e-03  4.0082e-03  1.0256e+00  1.9897e-03  0:03:21 1553
   448  1.9775e-03  6.5225e-03  3.9821e-03  1.0022e+00  1.9353e-03  0:02:41 1552
   449  1.9259e-03  6.5052e-03  3.9532e-03  9.8012e-01  1.8835e-03  0:02:08 1551
   450  1.8760e-03  6.4837e-03  3.9219e-03  9.5904e-01  1.8334e-03  0:01:43 1550
   451  1.8301e-03  6.4525e-03  3.8888e-03  9.3876e-01  1.7874e-03  0:01:22 1549

  iter  continuity  x-velocity  y-velocity  z-velocity      energy     time/iter
   452  1.7907e-03  6.4204e-03  3.8543e-03  9.1861e-01  1.7479e-03  0:06:15 1548
   453  1.7446e-03  6.3878e-03  3.8186e-03  8.9770e-01  1.7017e-03  0:05:00 1547
   454  1.6973e-03  6.3548e-03  3.7823e-03  8.7572e-01  1.6540e-03  0:04:00 1546
   455  1.6549e-03  6.3183e-03  3.7456e-03  8.5386e-01  1.6115e-03  0:03:12 1545
   456  1.6190e-03  6.2823e-03  3.7082e-03  8.3382e-01  1.5756e-03  0:02:33 1544
   457  1.5858e-03  6.2476e-03  3.6704e-03  8.1398e-01  1.5423e-03  0:02:03 1543
   458  1.5550e-03  6.2119e-03  3.6327e-03  7.9460e-01  1.5115e-03  0:06:46 1542
   459  1.5253e-03  6.1734e-03  3.5953e-03  7.7574e-01  1.4818e-03  0:05:25 1541
   460  1.4979e-03  6.1280e-03  3.5587e-03  7.5708e-01  1.4545e-03  0:04:20 1540
   461  1.4771e-03  6.0859e-03  3.5229e-03  7.3960e-01  1.4340e-03  0:03:28 1539
   462  1.4599e-03  6.0464e-03  3.4868e-03  7.2237e-01  1.4171e-03  0:02:46 1538

  iter  continuity  x-velocity  y-velocity  z-velocity      energy     time/iter
   463  1.4446e-03  6.0084e-03  3.4509e-03  7.0585e-01  1.4021e-03  0:02:13 1537
   464  1.4293e-03  5.9661e-03  3.4157e-03  6.9021e-01  1.3871e-03  0:06:53 1536
   465  1.4174e-03  5.9271e-03  3.3805e-03  6.7531e-01  1.3757e-03  0:05:30 1535
   466  1.4059e-03  5.8897e-03  3.3454e-03  6.6079e-01  1.3646e-03  0:04:24 1534
   467  1.3953e-03  5.8537e-03  3.3105e-03  6.4645e-01  1.3545e-03  0:03:31 1533
   468  1.3850e-03  5.8186e-03  3.2760e-03  6.3293e-01  1.3445e-03  0:02:49 1532
   469  1.3750e-03  5.7837e-03  3.2420e-03  6.2003e-01  1.3350e-03  0:02:15 1531
   470  1.3645e-03  5.7491e-03  3.2090e-03  6.0774e-01  1.3248e-03  0:01:48 1530
   471  1.3560e-03  5.7150e-03  3.1761e-03  5.9614e-01  1.3168e-03  0:06:32 1529
   472  1.3468e-03  5.6796e-03  3.1438e-03  5.8490e-01  1.3080e-03  0:05:13 1528
   473  1.3366e-03  5.6426e-03  3.1121e-03  5.7384e-01  1.2981e-03  0:04:11 1527

  iter  continuity  x-velocity  y-velocity  z-velocity      energy     time/iter
   474  1.3246e-03  5.5975e-03  3.0811e-03  5.6297e-01  1.2863e-03  0:03:20 1526
   475  1.3137e-03  5.5523e-03  3.0504e-03  5.5327e-01  1.2757e-03  0:02:40 1525
   476  1.3044e-03  5.5069e-03  3.0203e-03  5.4407e-01  1.2667e-03  0:02:08 1524
   477  1.2959e-03  5.4616e-03  2.9908e-03  5.3507e-01  1.2585e-03  0:01:42 1523
   478  1.2873e-03  5.4139e-03  2.9620e-03  5.2633e-01  1.2502e-03  0:06:26 1522
   479  1.2791e-03  5.3681e-03  2.9344e-03  5.1843e-01  1.2422e-03  0:05:09 1521
   480  1.2727e-03  5.3239e-03  2.9074e-03  5.1026e-01  1.2361e-03  0:04:07 1520
   481  1.2667e-03  5.2820e-03  2.8809e-03  5.0210e-01  1.2305e-03  0:03:17 1519
   482  1.2602e-03  5.2421e-03  2.8550e-03  4.9425e-01  1.2243e-03  0:02:38 1518
   483  1.2544e-03  5.1934e-03  2.8299e-03  4.8689e-01  1.2188e-03  0:02:06 1517
   484  1.2427e-03  5.1367e-03  2.8055e-03  4.7983e-01  1.2072e-03  0:01:41 1516

  iter  continuity  x-velocity  y-velocity  z-velocity      energy     time/iter
   485  1.2291e-03  5.0748e-03  2.7820e-03  4.7260e-01  1.1937e-03  0:06:24 1515
   486  1.2186e-03  5.0160e-03  2.7582e-03  4.6546e-01  1.1834e-03  0:05:07 1514
   487  1.2093e-03  4.9594e-03  2.7346e-03  4.5879e-01  1.1743e-03  0:04:05 1513
   488  1.1988e-03  4.9015e-03  2.7118e-03  4.5226e-01  1.1639e-03  0:03:16 1512
   489  1.1876e-03  4.8441e-03  2.6901e-03  4.4585e-01  1.1530e-03  0:02:37 1511
   490  1.1765e-03  4.7852e-03  2.6693e-03  4.3966e-01  1.1420e-03  0:02:05 1510
   491  1.1659e-03  4.7247e-03  2.6492e-03  4.3374e-01  1.1316e-03  0:01:40 1509
   492  1.1549e-03  4.6626e-03  2.6295e-03  4.2777e-01  1.1208e-03  0:06:22 1508
   493  1.1447e-03  4.6018e-03  2.6099e-03  4.2179e-01  1.1108e-03  0:05:05 1507
   494  1.1345e-03  4.5415e-03  2.5907e-03  4.1581e-01  1.1008e-03  0:04:04 1506
   495  1.1222e-03  4.4763e-03  2.5719e-03  4.0993e-01  1.0887e-03  0:03:15 1505

  iter  continuity  x-velocity  y-velocity  z-velocity      energy     time/iter
   496  1.1101e-03  4.4145e-03  2.5536e-03  4.0410e-01  1.0768e-03  0:02:36 1504
   497  1.0980e-03  4.3572e-03  2.5358e-03  3.9807e-01  1.0649e-03  0:02:05 1503
   498  1.0865e-03  4.3028e-03  2.5181e-03  3.9227e-01  1.0536e-03  0:01:40 1502
   499  1.0749e-03  4.2492e-03  2.5004e-03  3.8664e-01  1.0422e-03  0:06:20 1501
   500  1.0628e-03  4.1949e-03  2.4821e-03  3.8120e-01  1.0304e-03  0:05:04 1500
   501  1.0506e-03  4.1379e-03  2.4637e-03  3.7596e-01  1.0184e-03  0:04:03 1499
   502  1.0380e-03  4.0812e-03  2.4455e-03  3.7069e-01  1.0059e-03  0:03:14 1498
   503  1.0252e-03  4.0269e-03  2.4275e-03  3.6552e-01  9.9331e-04  0:02:35 1497
   504  1.0117e-03  3.9712e-03  2.4098e-03  3.6040e-01  9.7988e-04  0:02:04 1496
   505  9.9907e-04  3.9159e-03  2.3916e-03  3.5521e-01  9.6743e-04  0:01:39 1495
   506  9.8731e-04  3.8621e-03  2.3732e-03  3.5002e-01  9.5580e-04  0:06:18 1494

  iter  continuity  x-velocity  y-velocity  z-velocity      energy     time/iter
   507  9.7749e-04  3.8091e-03  2.3545e-03  3.4476e-01  9.4617e-04  0:05:02 1493
   508  9.6924e-04  3.7617e-03  2.3355e-03  3.3942e-01  9.3814e-04  0:04:02 1492
   509  9.6079e-04  3.7142e-03  2.3163e-03  3.3414e-01  9.2986e-04  0:03:13 1491
   510  9.5028e-04  3.6638e-03  2.2970e-03  3.2884e-01  9.1943e-04  0:02:34 1490
   511  9.4408e-04  3.6199e-03  2.2778e-03  3.2358e-01  9.1342e-04  0:02:03 1489
   512  9.3918e-04  3.5789e-03  2.2592e-03  3.1843e-01  9.0872e-04  0:01:39 1488
   513  9.3005e-04  3.5299e-03  2.2406e-03  3.1331e-01  8.9962e-04  0:06:16 1487
   514  9.2462e-04  3.4849e-03  2.2215e-03  3.0822e-01  8.9430e-04  0:05:01 1486
   515  9.2043e-04  3.4389e-03  2.2028e-03  3.0307e-01  8.9019e-04  0:04:01 1485
   516  9.1685e-04  3.3923e-03  2.1846e-03  2.9808e-01  8.8666e-04  0:03:12 1484
   517  9.1441e-04  3.3480e-03  2.1671e-03  2.9315e-01  8.8427e-04  0:02:34 1483

  iter  continuity  x-velocity  y-velocity  z-velocity      energy     time/iter
   518  9.1345e-04  3.3032e-03  2.1502e-03  2.8827e-01  8.8335e-04  0:02:03 1482
   519  9.1314e-04  3.2556e-03  2.1340e-03  2.8353e-01  8.8306e-04  0:01:38 1481
   520  9.1556e-04  3.2057e-03  2.1189e-03  2.7858e-01  8.8552e-04  0:06:15 1480
   521  9.1864e-04  3.1597e-03  2.1049e-03  2.7353e-01  8.8863e-04  0:04:59 1479
   522  9.2131e-04  3.1168e-03  2.0923e-03  2.6870e-01  8.9126e-04  0:03:59 1478
   523  9.2559e-04  3.0731e-03  2.0809e-03  2.6386e-01  8.9551e-04  0:03:11 1477
   524  9.3186e-04  3.0284e-03  2.0707e-03  2.5917e-01  9.0176e-04  0:02:33 1476
   525  9.3852e-04  2.9880e-03  2.0621e-03  2.5465e-01  9.0836e-04  0:02:02 1475
   526  9.4658e-04  2.9515e-03  2.0553e-03  2.5032e-01  9.1636e-04  0:01:38 1474
   527  9.6029e-04  2.9246e-03  2.0497e-03  2.4641e-01  9.3011e-04  0:06:13 1473
   528  9.8109e-04  2.9068e-03  2.0462e-03  2.4286e-01  9.5113e-04  0:04:58 1472

  iter  continuity  x-velocity  y-velocity  z-velocity      energy     time/iter
   529  9.8373e-04  2.8648e-03  2.0436e-03  2.3669e-01  9.5341e-04  0:03:58 1471
   530  9.8954e-04  2.8277e-03  2.0434e-03  2.3269e-01  9.5894e-04  0:03:10 1470
   531  9.9718e-04  2.7925e-03  2.0450e-03  2.2969e-01  9.6633e-04  0:02:32 1469
   532  1.0084e-03  2.7636e-03  2.0484e-03  2.2611e-01  9.7736e-04  0:02:02 1468
   533  1.0214e-03  2.7357e-03  2.0537e-03  2.2208e-01  9.9024e-04  0:01:37 1467
   534  1.0346e-03  2.7110e-03  2.0608e-03  2.1730e-01  1.0032e-03  0:06:11 1466
   535  1.0470e-03  2.6872e-03  2.0698e-03  2.1203e-01  1.0154e-03  0:04:57 1465
   536  1.0594e-03  2.6656e-03  2.0806e-03  2.0645e-01  1.0275e-03  0:03:57 1464
   537  1.0720e-03  2.6464e-03  2.0931e-03  2.0108e-01  1.0398e-03  0:03:10 1463
   538  1.0846e-03  2.6294e-03  2.1072e-03  1.9601e-01  1.0522e-03  0:02:32 1462
   539  1.0970e-03  2.6145e-03  2.1229e-03  1.9117e-01  1.0644e-03  0:02:01 1461

  iter  continuity  x-velocity  y-velocity  z-velocity      energy     time/iter
   540  1.1089e-03  2.6010e-03  2.1400e-03  1.8652e-01  1.0760e-03  0:01:37 1460
   541  1.1205e-03  2.5897e-03  2.1586e-03  1.8199e-01  1.0873e-03  0:06:09 1459
   542  1.1317e-03  2.5811e-03  2.1781e-03  1.7760e-01  1.0983e-03  0:04:55 1458
   543  1.1421e-03  2.5750e-03  2.1988e-03  1.7339e-01  1.1083e-03  0:03:56 1457
   544  1.1515e-03  2.5711e-03  2.2206e-03  1.6931e-01  1.1175e-03  0:03:09 1456
   545  1.1603e-03  2.5698e-03  2.2432e-03  1.6518e-01  1.1261e-03  0:02:31 1455
   546  1.1682e-03  2.5713e-03  2.2665e-03  1.6114e-01  1.1336e-03  0:02:01 1454
   547  1.1748e-03  2.5751e-03  2.2904e-03  1.5731e-01  1.1400e-03  0:01:36 1453
   548  1.1800e-03  2.5813e-03  2.3146e-03  1.5363e-01  1.1449e-03  0:06:07 1452
   549  1.1836e-03  2.5892e-03  2.3390e-03  1.4991e-01  1.1484e-03  0:04:54 1451
   550  1.1858e-03  2.5989e-03  2.3636e-03  1.4635e-01  1.1503e-03  0:03:55 1450

  iter  continuity  x-velocity  y-velocity  z-velocity      energy     time/iter
   551  1.1844e-03  2.6067e-03  2.3882e-03  1.4295e-01  1.1486e-03  0:03:08 1449
   552  1.1819e-03  2.6173e-03  2.4125e-03  1.3974e-01  1.1459e-03  0:02:30 1448
   553  1.1795e-03  2.6324e-03  2.4365e-03  1.3668e-01  1.1432e-03  0:02:00 1447
   554  1.1756e-03  2.6496e-03  2.4595e-03  1.3379e-01  1.1392e-03  0:01:36 1446
   555  1.1699e-03  2.6679e-03  2.4817e-03  1.3100e-01  1.1333e-03  0:06:06 1445
   556  1.1626e-03  2.6873e-03  2.5029e-03  1.2835e-01  1.1258e-03  0:04:52 1444
   557  1.1536e-03  2.7080e-03  2.5230e-03  1.2589e-01  1.1167e-03  0:03:54 1443
   558  1.1433e-03  2.7299e-03  2.5418e-03  1.2343e-01  1.1063e-03  0:03:07 1442
   559  1.1315e-03  2.7527e-03  2.5590e-03  1.2109e-01  1.0944e-03  0:02:29 1441
   560  1.1183e-03  2.7761e-03  2.5746e-03  1.1890e-01  1.0811e-03  0:01:59 1440
   561  1.1035e-03  2.7997e-03  2.5885e-03  1.1681e-01  1.0663e-03  0:01:35 1439

  iter  continuity  x-velocity  y-velocity  z-velocity      energy     time/iter
   562  1.0880e-03  2.8250e-03  2.6004e-03  1.1468e-01  1.0507e-03  0:06:04 1438
   563  1.0714e-03  2.8515e-03  2.6101e-03  1.1272e-01  1.0342e-03  0:04:51 1437
   564  1.0536e-03  2.8771e-03  2.6176e-03  1.1082e-01  1.0165e-03  0:03:53 1436
   565  1.0348e-03  2.9022e-03  2.6230e-03  1.0897e-01  9.9768e-04  0:03:06 1435
   566  1.0150e-03  2.9271e-03  2.6260e-03  1.0716e-01  9.7802e-04  0:02:29 1434
   567  9.9449e-04  2.9515e-03  2.6265e-03  1.0542e-01  9.5762e-04  0:01:59 1433
   568  9.7336e-04  2.9751e-03  2.6245e-03  1.0368e-01  9.3666e-04  0:06:21 1432
   569  9.5140e-04  2.9971e-03  2.6200e-03  1.0197e-01  9.1488e-04  0:05:05 1431
   570  9.2933e-04  3.0178e-03  2.6129e-03  1.0026e-01  8.9303e-04  0:04:04 1430
   571  9.0707e-04  3.0370e-03  2.6033e-03  9.8601e-02  8.7103e-04  0:03:15 1429
   572  8.8465e-04  3.0546e-03  2.5911e-03  9.6923e-02  8.4890e-04  0:02:36 1428

  iter  continuity  x-velocity  y-velocity  z-velocity      energy     time/iter
   573  8.6214e-04  3.0702e-03  2.5762e-03  9.5280e-02  8.2671e-04  0:02:05 1427
   574  8.3961e-04  3.0837e-03  2.5587e-03  9.3837e-02  8.0452e-04  0:01:40 1426
   575  8.1716e-04  3.0948e-03  2.5387e-03  9.2447e-02  7.8246e-04  0:01:20 1425
   576  7.9494e-04  3.1035e-03  2.5163e-03  9.0970e-02  7.6064e-04  0:05:48 1424
   577  7.7299e-04  3.1098e-03  2.4914e-03  8.9371e-02  7.3913e-04  0:04:39 1423
   578  7.5095e-04  3.1134e-03  2.4643e-03  8.7666e-02  7.1752e-04  0:03:43 1422
   579  7.2927e-04  3.1143e-03  2.4350e-03  8.5868e-02  6.9631e-04  0:02:58 1421
   580  7.0866e-04  3.1131e-03  2.4036e-03  8.4037e-02  6.7621e-04  0:02:22 1420
   581  6.8833e-04  3.1096e-03  2.3704e-03  8.2188e-02  6.5639e-04  0:01:54 1419
   582  6.6836e-04  3.1037e-03  2.3353e-03  8.0384e-02  6.3695e-04  0:01:31 1418
   583  6.4906e-04  3.0955e-03  2.2986e-03  7.8720e-02  6.1819e-04  0:05:56 1417

  iter  continuity  x-velocity  y-velocity  z-velocity      energy     time/iter
   584  6.3058e-04  3.0849e-03  2.2602e-03  7.7175e-02  6.0027e-04  0:04:45 1416
   585  6.1268e-04  3.0717e-03  2.2205e-03  7.5715e-02  5.8294e-04  0:03:48 1415
   586  5.9532e-04  3.0562e-03  2.1795e-03  7.4041e-02  5.6615e-04  0:03:02 1414
   587  5.7860e-04  3.0383e-03  2.1373e-03  7.2305e-02  5.5001e-04  0:02:25 1413
   588  5.6252e-04  3.0183e-03  2.0941e-03  7.0507e-02  5.3451e-04  0:01:56 1412
   589  5.4710e-04  2.9962e-03  2.0501e-03  6.8689e-02  5.1967e-04  0:01:33 1411
   590  5.3235e-04  2.9722e-03  2.0054e-03  6.6955e-02  5.0550e-04  0:05:56 1410
   591  5.1829e-04  2.9465e-03  1.9601e-03  6.5277e-02  4.9202e-04  0:04:45 1409
   592  5.0487e-04  2.9192e-03  1.9144e-03  6.3632e-02  4.7918e-04  0:03:48 1408
   593  4.9199e-04  2.8905e-03  1.8685e-03  6.2007e-02  4.6688e-04  0:03:02 1407
   594  4.7989e-04  2.8606e-03  1.8225e-03  6.0405e-02  4.5536e-04  0:02:26 1406

  iter  continuity  x-velocity  y-velocity  z-velocity      energy     time/iter
   595  4.6845e-04  2.8297e-03  1.7765e-03  5.8821e-02  4.4449e-04  0:01:56 1405
   596  4.5759e-04  2.7979e-03  1.7306e-03  5.7266e-02  4.3419e-04  0:01:33 1404
   597  4.4737e-04  2.7653e-03  1.6852e-03  5.5742e-02  4.2454e-04  0:05:55 1403
   598  4.3787e-04  2.7322e-03  1.6403e-03  5.4273e-02  4.1561e-04  0:04:44 1402
   599  4.2881e-04  2.6989e-03  1.5959e-03  5.2830e-02  4.0711e-04  0:03:47 1401
   600  4.1987e-04  2.6654e-03  1.5524e-03  5.1427e-02  3.9870e-04  0:03:01 1400
   601  4.1014e-04  2.6316e-03  1.5097e-03  5.0061e-02  3.8944e-04  0:02:25 1399
   602  4.0166e-04  2.5981e-03  1.4679e-03  4.8755e-02  3.8147e-04  0:01:56 1398
   603  3.9366e-04  2.5646e-03  1.4270e-03  4.7518e-02  3.7397e-04  0:01:33 1397
   604  3.8594e-04  2.5313e-03  1.3873e-03  4.6314e-02  3.6674e-04  0:05:53 1396
   605  3.7829e-04  2.4983e-03  1.3488e-03  4.5204e-02  3.5957e-04  0:04:42 1395

  iter  continuity  x-velocity  y-velocity  z-velocity      energy     time/iter
   606  3.7074e-04  2.4657e-03  1.3116e-03  4.4180e-02  3.5247e-04  0:03:46 1394
   607  3.6376e-04  2.4338e-03  1.2755e-03  4.3155e-02  3.4596e-04  0:03:00 1393
   608  3.5695e-04  2.4025e-03  1.2409e-03  4.2202e-02  3.3961e-04  0:02:24 1392
   609  3.5022e-04  2.3720e-03  1.2075e-03  4.1249e-02  3.3333e-04  0:01:55 1391
   610  3.4353e-04  2.3421e-03  1.1754e-03  4.0391e-02  3.2707e-04  0:01:32 1390
   611  3.3684e-04  2.3130e-03  1.1447e-03  3.9549e-02  3.2082e-04  0:05:52 1389
   612  3.3012e-04  2.2848e-03  1.1152e-03  3.8763e-02  3.1451e-04  0:04:41 1388
   613  3.2330e-04  2.2578e-03  1.0868e-03  3.7890e-02  3.0809e-04  0:03:45 1387
   614  3.1643e-04  2.2308e-03  1.0600e-03  3.6930e-02  3.0160e-04  0:03:00 1386
   615  3.0953e-04  2.2045e-03  1.0344e-03  3.5917e-02  2.9508e-04  0:02:24 1385
   616  3.0256e-04  2.1795e-03  1.0098e-03  3.4917e-02  2.8848e-04  0:01:55 1384

  iter  continuity  x-velocity  y-velocity  z-velocity      energy     time/iter
   617  2.9549e-04  2.1553e-03  9.8619e-04  3.3871e-02  2.8176e-04  0:06:08 1383
   618  2.8827e-04  2.1321e-03  9.6361e-04  3.2875e-02  2.7488e-04  0:04:54 1382
   619  2.8094e-04  2.1097e-03  9.4181e-04  3.2021e-02  2.6788e-04  0:03:55 1381
   620  2.7351e-04  2.0879e-03  9.2088e-04  3.1512e-02  2.6077e-04  0:03:08 1380
   621  2.6602e-04  2.0667e-03  9.0069e-04  3.1622e-02  2.5358e-04  0:02:30 1379
   622  2.5850e-04  2.0460e-03  8.8118e-04  3.2586e-02  2.4635e-04  0:02:00 1378
   623  2.5086e-04  2.0261e-03  8.6234e-04  3.4272e-02  2.3900e-04  0:01:36 1377
   624  2.4308e-04  2.0071e-03  8.4412e-04  3.6767e-02  2.3150e-04  0:05:52 1376
   625  2.3541e-04  1.9892e-03  8.2647e-04  3.9408e-02  2.2410e-04  0:04:41 1375
   626  2.2784e-04  1.9719e-03  8.0875e-04  4.1945e-02  2.1680e-04  0:03:45 1374
   627  2.2000e-04  1.9545e-03  7.9113e-04  4.3926e-02  2.0919e-04  0:03:00 1373

  iter  continuity  x-velocity  y-velocity  z-velocity      energy     time/iter
   628  2.1199e-04  1.9370e-03  7.7361e-04  4.5161e-02  2.0140e-04  0:02:24 1372
   629  2.0446e-04  1.9202e-03  7.5657e-04  4.5472e-02  1.9408e-04  0:01:55 1371
   630  1.9723e-04  1.9039e-03  7.3973e-04  4.5282e-02  1.8708e-04  0:01:32 1370
   631  1.9028e-04  1.8881e-03  7.2299e-04  4.5209e-02  1.8035e-04  0:01:13 1369
   632  1.8359e-04  1.8724e-03  7.0628e-04  4.4883e-02  1.7387e-04  0:05:32 1368
   633  1.7719e-04  1.8571e-03  6.8958e-04  4.4075e-02  1.6768e-04  0:04:26 1367
   634  1.7108e-04  1.8420e-03  6.7288e-04  4.2917e-02  1.6178e-04  0:03:32 1366
   635  1.6528e-04  1.8271e-03  6.5616e-04  4.1669e-02  1.5618e-04  0:02:50 1365
   636  1.5985e-04  1.8124e-03  6.3941e-04  4.0692e-02  1.5094e-04  0:02:16 1364
   637  1.5482e-04  1.7978e-03  6.2265e-04  4.3891e-02  1.4612e-04  0:01:48 1363
   638  1.5021e-04  1.7834e-03  6.0588e-04  4.3633e-02  1.4170e-04  0:01:27 1362

  iter  continuity  x-velocity  y-velocity  z-velocity      energy     time/iter
   639  1.4599e-04  1.7691e-03  5.8914e-04  4.1661e-02  1.3767e-04  0:05:42 1361
   640  1.4218e-04  1.7550e-03  5.7244e-04  3.9697e-02  1.3406e-04  0:04:33 1360
   641  1.3880e-04  1.7411e-03  5.5582e-04  3.8063e-02  1.3088e-04  0:03:38 1359
   642  1.3596e-04  1.7272e-03  5.3932e-04  3.6677e-02  1.2823e-04  0:02:54 1358
   643  1.3357e-04  1.7137e-03  5.2297e-04  3.5681e-02  1.2605e-04  0:02:19 1357
   644  1.3141e-04  1.7003e-03  5.0684e-04  3.4613e-02  1.2408e-04  0:01:52 1356
   645  1.2964e-04  1.6871e-03  4.9095e-04  3.3663e-02  1.2248e-04  0:06:00 1355
   646  1.2828e-04  1.6741e-03  4.7539e-04  3.2793e-02  1.2131e-04  0:04:48 1354
   647  1.2743e-04  1.6614e-03  4.6018e-04  3.1586e-02  1.2065e-04  0:03:50 1353
   648  1.2666e-04  1.6489e-03  4.4540e-04  3.0266e-02  1.2004e-04  0:03:04 1352
   649  1.2417e-04  1.6348e-03  4.3124e-04  2.8733e-02  1.1760e-04  0:02:27 1351

  iter  continuity  x-velocity  y-velocity  z-velocity      energy     time/iter
   650  1.2399e-04  1.6220e-03  4.1758e-04  2.7498e-02  1.1758e-04  0:01:58 1350
   651  1.2414e-04  1.6096e-03  4.0441e-04  2.6506e-02  1.1788e-04  0:01:34 1349
   652  1.2459e-04  1.5974e-03  3.9184e-04  2.5307e-02  1.1848e-04  0:05:45 1348
   653  1.2533e-04  1.5855e-03  3.7996e-04  2.4236e-02  1.1936e-04  0:04:36 1347
   654  1.2617e-04  1.5738e-03  3.6883e-04  2.3291e-02  1.2033e-04  0:03:40 1346
   655  1.2716e-04  1.5625e-03  3.5848e-04  2.2415e-02  1.2144e-04  0:02:56 1345
   656  1.2798e-04  1.5514e-03  3.4898e-04  2.1638e-02  1.2235e-04  0:02:21 1344
   657  1.2869e-04  1.5407e-03  3.4040e-04  2.0899e-02  1.2315e-04  0:01:53 1343
   658  1.2939e-04  1.5307e-03  3.3287e-04  2.0244e-02  1.2392e-04  0:05:58 1342
   659  1.3066e-04  1.5213e-03  3.2586e-04  1.9593e-02  1.2527e-04  0:04:46 1341
   660  1.3210e-04  1.5123e-03  3.1968e-04  1.8933e-02  1.2680e-04  0:03:49 1340

  iter  continuity  x-velocity  y-velocity  z-velocity      energy     time/iter
   661  1.3362e-04  1.5035e-03  3.1436e-04  1.8253e-02  1.2839e-04  0:03:03 1339
   662  1.3514e-04  1.4952e-03  3.0992e-04  1.7713e-02  1.2996e-04  0:02:26 1338
   663  1.3659e-04  1.4872e-03  3.0632e-04  1.7085e-02  1.3147e-04  0:01:57 1337
   664  1.3803e-04  1.4795e-03  3.0353e-04  1.6450e-02  1.3294e-04  0:01:34 1336
   665  1.3943e-04  1.4723e-03  3.0151e-04  1.5855e-02  1.3438e-04  0:05:42 1335
   666  1.4078e-04  1.4654e-03  3.0022e-04  1.5308e-02  1.3576e-04  0:04:33 1334
   667  1.4207e-04  1.4589e-03  2.9961e-04  1.4817e-02  1.3707e-04  0:03:38 1333
   668  1.4327e-04  1.4528e-03  2.9963e-04  1.4371e-02  1.3829e-04  0:02:55 1332
   669  1.4437e-04  1.4470e-03  3.0020e-04  1.3981e-02  1.3941e-04  0:02:20 1331
   670  1.4535e-04  1.4416e-03  3.0129e-04  1.3675e-02  1.4039e-04  0:01:52 1330
   671  1.4620e-04  1.4364e-03  3.0283e-04  1.3463e-02  1.4125e-04  0:01:29 1329

  iter  continuity  x-velocity  y-velocity  z-velocity      energy     time/iter
   672  1.4692e-04  1.4315e-03  3.0475e-04  1.3333e-02  1.4197e-04  0:05:37 1328
   673  1.4750e-04  1.4268e-03  3.0701e-04  1.3268e-02  1.4254e-04  0:04:29 1327
   674  1.4792e-04  1.4224e-03  3.0953e-04  1.3261e-02  1.4297e-04  0:03:35 1326
   675  1.4820e-04  1.4182e-03  3.1227e-04  1.3301e-02  1.4324e-04  0:02:52 1325
   676  1.4831e-04  1.4142e-03  3.1518e-04  1.3373e-02  1.4334e-04  0:02:18 1324
   677  1.4827e-04  1.4104e-03  3.1819e-04  1.3545e-02  1.4329e-04  0:01:50 1323
   678  1.4807e-04  1.4068e-03  3.2126e-04  1.3642e-02  1.4309e-04  0:01:28 1322
   679  1.4775e-04  1.4033e-03  3.2435e-04  1.3641e-02  1.4276e-04  0:05:34 1321
   680  1.4728e-04  1.4000e-03  3.2741e-04  1.3637e-02  1.4228e-04  0:04:27 1320
   681  1.4659e-04  1.3968e-03  3.3041e-04  1.3684e-02  1.4159e-04  0:03:34 1319
   682  1.4578e-04  1.3937e-03  3.3331e-04  1.3941e-02  1.4077e-04  0:02:51 1318

  iter  continuity  x-velocity  y-velocity  z-velocity      energy     time/iter
   683  1.4484e-04  1.3906e-03  3.3607e-04  1.4191e-02  1.3982e-04  0:02:17 1317
   684  1.4376e-04  1.3877e-03  3.3864e-04  1.4269e-02  1.3874e-04  0:06:12 1316
   685  1.4255e-04  1.3849e-03  3.4102e-04  1.4280e-02  1.3753e-04  0:04:58 1315
   686  1.4123e-04  1.3821e-03  3.4317e-04  1.4242e-02  1.3620e-04  0:03:58 1314
   687  1.3978e-04  1.3793e-03  3.4509e-04  1.4185e-02  1.3475e-04  0:03:10 1313
   688  1.3825e-04  1.3766e-03  3.4676e-04  1.4107e-02  1.3323e-04  0:02:32 1312
   689  1.3662e-04  1.3739e-03  3.4816e-04  1.4090e-02  1.3160e-04  0:02:02 1311
   690  1.3490e-04  1.3712e-03  3.4929e-04  1.4092e-02  1.2989e-04  0:01:37 1310
   691  1.3313e-04  1.3685e-03  3.5012e-04  1.4263e-02  1.2813e-04  0:05:39 1309
   692  1.3129e-04  1.3659e-03  3.5066e-04  1.4891e-02  1.2630e-04  0:04:31 1308
   693  1.2939e-04  1.3633e-03  3.5089e-04  1.5420e-02  1.2442e-04  0:03:37 1307

  iter  continuity  x-velocity  y-velocity  z-velocity      energy     time/iter
   694  1.2744e-04  1.3606e-03  3.5082e-04  1.5493e-02  1.2249e-04  0:02:53 1306
   695  1.2546e-04  1.3579e-03  3.5044e-04  1.5529e-02  1.2053e-04  0:02:19 1305
   696  1.2344e-04  1.3552e-03  3.4976e-04  1.5449e-02  1.1854e-04  0:01:51 1304
   697  1.2140e-04  1.3525e-03  3.4878e-04  1.5319e-02  1.1653e-04  0:01:29 1303
   698  1.1936e-04  1.3498e-03  3.4750e-04  1.5040e-02  1.1451e-04  0:01:11 1302
   699  1.1731e-04  1.3470e-03  3.4593e-04  1.4755e-02  1.1249e-04  0:00:57 1301
   700  1.1526e-04  1.3442e-03  3.4407e-04  1.4482e-02  1.1047e-04  0:05:05 1300
   701  1.1322e-04  1.3413e-03  3.4193e-04  1.4234e-02  1.0847e-04  0:04:04 1299
   702  1.1120e-04  1.3385e-03  3.3953e-04  1.4015e-02  1.0649e-04  0:03:15 1298
   703  1.0920e-04  1.3356e-03  3.3687e-04  1.3831e-02  1.0454e-04  0:02:36 1297
   704  1.0725e-04  1.3326e-03  3.3397e-04  1.3693e-02  1.0263e-04  0:02:05 1296

  iter  continuity  x-velocity  y-velocity  z-velocity      energy     time/iter
   705  1.0536e-04  1.3298e-03  3.3083e-04  3.8445e-02  1.0079e-04  0:01:40 1295
   706  1.0352e-04  1.3268e-03  3.2749e-04  5.5419e-02  9.8998e-05  0:01:20 1294
   707  1.0163e-04  1.3238e-03  3.2393e-04  6.6328e-02  9.7149e-05  0:01:04 1293
   708  9.9847e-05  1.3208e-03  3.2020e-04  9.2880e-02  9.5420e-05  0:00:51 1292
   709  9.8124e-05  1.3177e-03  3.1631e-04  1.1055e-01  9.3748e-05  0:00:41 1291
   710  9.6452e-05  1.3147e-03  3.1228e-04  1.2374e-01  9.2130e-05  0:00:33 1290
   711  9.4828e-05  1.3116e-03  3.0812e-04  1.2966e-01  9.0559e-05  0:00:26 1289
   712  9.3216e-05  1.3084e-03  3.0385e-04  1.3265e-01  8.9001e-05  0:04:38 1288
   713  9.1701e-05  1.3053e-03  2.9947e-04  1.3269e-01  8.7542e-05  0:03:43 1287
   714  9.0234e-05  1.3022e-03  2.9500e-04  1.3065e-01  8.6131e-05  0:02:58 1286
   715  8.8834e-05  1.2991e-03  2.9047e-04  1.2758e-01  8.4787e-05  0:02:22 1285

  iter  continuity  x-velocity  y-velocity  z-velocity      energy     time/iter
   716  8.7508e-05  1.2960e-03  2.8589e-04  1.2404e-01  8.3520e-05  0:01:54 1284
   717  8.6222e-05  1.2929e-03  2.8129e-04  1.2089e-01  8.2292e-05  0:01:31 1283
   718  8.5030e-05  1.2899e-03  2.7668e-04  1.2077e-01  8.1159e-05  0:01:13 1282
   719  8.3917e-05  1.2868e-03  2.7207e-04  1.2091e-01  8.0107e-05  0:00:58 1281
   720  8.2846e-05  1.2838e-03  2.6747e-04  1.2159e-01  7.9096e-05  0:00:46 1280
   721  8.1843e-05  1.2807e-03  2.6291e-04  1.2783e-01  7.8153e-05  0:00:37 1279
   722  8.0913e-05  1.2778e-03  2.5840e-04  1.3792e-01  7.7284e-05  0:00:30 1278
   723  8.0061e-05  1.2748e-03  2.5394e-04  1.5330e-01  7.6492e-05  0:00:24 1277
   724  7.9227e-05  1.2720e-03  2.4956e-04  1.5831e-01  7.5717e-05  0:00:19 1276
   725  7.8423e-05  1.2692e-03  2.4528e-04  1.5768e-01  7.4972e-05  0:04:30 1275
   726  7.7682e-05  1.2664e-03  2.4110e-04  1.5532e-01  7.4288e-05  0:03:36 1274

  iter  continuity  x-velocity  y-velocity  z-velocity      energy     time/iter
   727  7.6974e-05  1.2637e-03  2.3703e-04  1.5291e-01  7.3637e-05  0:02:53 1273
   728  7.6307e-05  1.2611e-03  2.3307e-04  1.5139e-01  7.3026e-05  0:02:18 1272
   729  7.5710e-05  1.2585e-03  2.2924e-04  1.4981e-01  7.2484e-05  0:01:50 1271
   730  7.5120e-05  1.2560e-03  2.2553e-04  1.5089e-01  7.1948e-05  0:01:28 1270
   731  7.4548e-05  1.2535e-03  2.2196e-04  1.5291e-01  7.1429e-05  0:01:10 1269
   732  7.3997e-05  1.2510e-03  2.1852e-04  1.5608e-01  7.0928e-05  0:00:56 1268
   733  7.3423e-05  1.2486e-03  2.1521e-04  1.5835e-01  7.0401e-05  0:00:45 1267
   734  7.2876e-05  1.2463e-03  2.1203e-04  1.5985e-01  6.9901e-05  0:00:36 1266
   735  7.2404e-05  1.2440e-03  2.0900e-04  1.6044e-01  6.9477e-05  0:00:29 1265
   736  7.1967e-05  1.2418e-03  2.0610e-04  1.6000e-01  6.9087e-05  0:04:36 1264
   737  7.1559e-05  1.2397e-03  2.0335e-04  1.5824e-01  6.8724e-05  0:03:40 1263

  iter  continuity  x-velocity  y-velocity  z-velocity      energy     time/iter
   738  7.1165e-05  1.2377e-03  2.0071e-04  1.5936e-01  6.8375e-05  0:02:56 1262
   739  7.0810e-05  1.2357e-03  1.9820e-04  1.6075e-01  6.8064e-05  0:02:21 1261
   740  7.0476e-05  1.2338e-03  1.9582e-04  1.5890e-01  6.7772e-05  0:01:53 1260
   741  7.0030e-05  1.2318e-03  1.9356e-04  1.5325e-01  6.7362e-05  0:01:30 1259
   742  6.9639e-05  1.2299e-03  1.9144e-04  1.6525e-01  6.7006e-05  0:01:12 1258
   743  6.9375e-05  1.2282e-03  1.8943e-04  2.1686e-01  6.6780e-05  0:00:58 1257
   744  6.9284e-05  1.2265e-03  1.8753e-04  2.5000e-01  6.6731e-05  0:00:46 1256
   745  6.9303e-05  1.2249e-03  1.8573e-04  2.6412e-01  6.6795e-05  0:00:37 1255
   746  6.9419e-05  1.2234e-03  1.8402e-04  2.6906e-01  6.6956e-05  0:00:29 1254
   747  6.9645e-05  1.2219e-03  1.8241e-04  2.7293e-01  6.7230e-05  0:00:23 1253
   748  6.9989e-05  1.2206e-03  1.8087e-04  2.8210e-01  6.7623e-05  0:04:29 1252

  iter  continuity  x-velocity  y-velocity  z-velocity      energy     time/iter
   749  7.0501e-05  1.2193e-03  1.7941e-04  2.8897e-01  6.8185e-05  0:03:35 1251
   750  7.1163e-05  1.2181e-03  1.7805e-04  3.0272e-01  6.8899e-05  0:02:52 1250
   751  7.1975e-05  1.2169e-03  1.7677e-04  3.2598e-01  6.9766e-05  0:02:17 1249
   752  7.2950e-05  1.2159e-03  1.7555e-04  3.5338e-01  7.0795e-05  0:01:50 1248
   753  7.4069e-05  1.2149e-03  1.7439e-04  3.8980e-01  7.1971e-05  0:01:28 1247
   754  7.5639e-05  1.2140e-03  1.7329e-04  4.1897e-01  7.3605e-05  0:01:10 1246
   755  7.7392e-05  1.2133e-03  1.7226e-04  4.3575e-01  7.5421e-05  0:00:56 1245
   756  7.9186e-05  1.2126e-03  1.7131e-04  4.4086e-01  7.7276e-05  0:00:45 1244
   757  8.1103e-05  1.2121e-03  1.7043e-04  4.9882e-01  7.9251e-05  0:00:36 1243
   758  8.3179e-05  1.2117e-03  1.6963e-04  5.5243e-01  8.1383e-05  0:00:29 1242
   759  8.5375e-05  1.2114e-03  1.6891e-04  5.4157e-01  8.3633e-05  0:00:23 1241

  iter  continuity  x-velocity  y-velocity  z-velocity      energy     time/iter
   760  8.7694e-05  1.2113e-03  1.6825e-04  5.1800e-01  8.6004e-05  0:04:26 1240
   761  9.0107e-05  1.2114e-03  1.6765e-04  4.9404e-01  8.8466e-05  0:03:33 1239
   762  9.2572e-05  1.2116e-03  1.6712e-04  4.7363e-01  9.0975e-05  0:02:50 1238
   763  9.5034e-05  1.2120e-03  1.6667e-04  4.5827e-01  9.3479e-05  0:02:16 1237
   764  9.7443e-05  1.2125e-03  1.6631e-04  4.4709e-01  9.5925e-05  0:01:49 1236
   765  9.9738e-05  1.2133e-03  1.6603e-04  4.3870e-01  9.8252e-05  0:01:27 1235
   766  1.0229e-04  1.2143e-03  1.6584e-04  4.3024e-01  1.0084e-04  0:01:09 1234
   767  1.0486e-04  1.2155e-03  1.6578e-04  4.2146e-01  1.0344e-04  0:00:56 1233
   768  1.0712e-04  1.2169e-03  1.6583e-04  4.1006e-01  1.0572e-04  0:00:44 1232
   769  1.0882e-04  1.2183e-03  1.6590e-04  3.9776e-01  1.0744e-04  0:00:35 1231
   770  1.0982e-04  1.2196e-03  1.6601e-04  3.8703e-01  1.0844e-04  0:00:28 1230

  iter  continuity  x-velocity  y-velocity  z-velocity      energy     time/iter
   771  1.1030e-04  1.2207e-03  1.6618e-04  4.1241e-01  1.0892e-04  0:00:23 1229
   772  1.1063e-04  1.2216e-03  1.6644e-04  4.8358e-01  1.0924e-04  0:04:24 1228
   773  1.1038e-04  1.2225e-03  1.6677e-04  5.8324e-01  1.0898e-04  0:03:31 1227
   774  1.0956e-04  1.2231e-03  1.6721e-04  7.0035e-01  1.0814e-04  0:02:49 1226
   775  1.0861e-04  1.2236e-03  1.6772e-04  8.2515e-01  1.0716e-04  0:02:15 1225
   776  1.0744e-04  1.2238e-03  1.6816e-04  9.5053e-01  1.0596e-04  0:01:48 1224
   777  1.0646e-04  1.2238e-03  1.6874e-04  1.0512e+00  1.0494e-04  0:01:26 1223
   778  1.0537e-04  1.2237e-03  1.6939e-04  1.1357e+00  1.0383e-04  0:01:09 1222
   779  9.7922e-05  1.2198e-03  1.7011e-04  1.2151e+00  9.6249e-05  0:00:55 1221
   780  9.4070e-05  1.2168e-03  1.7060e-04  1.2651e+00  9.2315e-05  0:00:44 1220
   781  9.1979e-05  1.2147e-03  1.7110e-04  1.3010e+00  9.0170e-05  0:00:35 1219

  iter  continuity  x-velocity  y-velocity  z-velocity      energy     time/iter
   782  9.0637e-05  1.2129e-03  1.7154e-04  1.3105e+00  8.8786e-05  0:00:28 1218
   783  8.9650e-05  1.2113e-03  1.7185e-04  1.2901e+00  8.7762e-05  0:00:22 1217
   784  8.9224e-05  1.2098e-03  1.7227e-04  1.2554e+00  8.7309e-05  0:04:21 1216
   785  8.9081e-05  1.2084e-03  1.7271e-04  1.1931e+00  8.7141e-05  0:03:29 1215
   786  8.8985e-05  1.2070e-03  1.7322e-04  1.1290e+00  8.7023e-05  0:02:47 1214
   787  8.8890e-05  1.2057e-03  1.7380e-04  1.0738e+00  8.6904e-05  0:02:13 1213
   788  8.8734e-05  1.2043e-03  1.7443e-04  1.0325e+00  8.6722e-05  0:01:47 1212
   789  8.8614e-05  1.2029e-03  1.7512e-04  1.0039e+00  8.6576e-05  0:01:25 1211
   790  8.8584e-05  1.2014e-03  1.7582e-04  9.8471e-01  8.6522e-05  0:01:08 1210
   791  8.8626e-05  1.2000e-03  1.7654e-04  9.7583e-01  8.6540e-05  0:00:54 1209
   792  8.8725e-05  1.1985e-03  1.7727e-04  9.8133e-01  8.6616e-05  0:00:44 1208

  iter  continuity  x-velocity  y-velocity  z-velocity      energy     time/iter
   793  8.8856e-05  1.1970e-03  1.7803e-04  9.9511e-01  8.6725e-05  0:00:35 1207
   794  8.9010e-05  1.1954e-03  1.7882e-04  1.0167e+00  8.6856e-05  0:00:28 1206
   795  8.9194e-05  1.1939e-03  1.7963e-04  1.0508e+00  8.7018e-05  0:00:22 1205
   796  8.9410e-05  1.1923e-03  1.8048e-04  1.1061e+00  8.7213e-05  0:04:19 1204
   797  8.8947e-05  1.1898e-03  1.8140e-04  1.1884e+00  8.6712e-05  0:03:27 1203
   798  8.8863e-05  1.1871e-03  1.8237e-04  1.2305e+00  8.6599e-05  0:02:45 1202
   799  8.9093e-05  1.1844e-03  1.8331e-04  1.2177e+00  8.6807e-05  0:02:12 1201
   800  8.9480e-05  1.1819e-03  1.8426e-04  1.1726e+00  8.7175e-05  0:01:46 1200
   801  8.9920e-05  1.1795e-03  1.8524e-04  1.1324e+00  8.7598e-05  0:01:24 1199
   802  9.0416e-05  1.1771e-03  1.8628e-04  1.0949e+00  8.8077e-05  0:01:07 1198
   803  9.0939e-05  1.1747e-03  1.8736e-04  1.0564e+00  8.8585e-05  0:00:54 1197

  iter  continuity  x-velocity  y-velocity  z-velocity      energy     time/iter
   804  9.1563e-05  1.1725e-03  1.8847e-04  1.0293e+00  8.9195e-05  0:00:43 1196
   805  9.2268e-05  1.1704e-03  1.8956e-04  1.0217e+00  8.9889e-05  0:00:34 1195
   806  9.2741e-05  1.1684e-03  1.9075e-04  1.0340e+00  9.0346e-05  0:00:28 1194
   807  9.3360e-05  1.1665e-03  1.9196e-04  1.0018e+00  9.0954e-05  0:00:22 1193
   808  9.3931e-05  1.1644e-03  1.9307e-04  9.8070e-01  9.1511e-05  0:04:16 1192
   809  9.4672e-05  1.1617e-03  1.9423e-04  9.8680e-01  9.2241e-05  0:03:25 1191
[...]
  1791  1.5093e-06  1.6145e-05  3.0423e-06  5.7866e-01  1.4862e-06  0:00:06  209
  1792  1.6008e-06  1.6247e-05  2.9949e-06  5.5917e-01  1.5796e-06  0:00:05  208
  1793  1.6270e-06  1.6338e-05  2.9618e-06  5.4344e-01  1.6066e-06  0:00:04  207

  iter  continuity  x-velocity  y-velocity  z-velocity      energy     time/iter
  1794  1.6200e-06  1.6426e-05  2.9282e-06  5.2742e-01  1.5998e-06  0:00:03  206
  1795  1.6123e-06  1.6542e-05  2.8875e-06  5.1319e-01  1.5924e-06  0:00:02  205
  1796  1.6125e-06  1.6696e-05  2.8443e-06  5.0086e-01  1.5929e-06  0:00:02  204
  1797  1.6200e-06  1.6888e-05  2.8032e-06  4.9059e-01  1.6008e-06  0:00:01  203
  1798  1.6328e-06  1.7111e-05  2.7663e-06  4.8241e-01  1.6139e-06  0:00:01  202
  1799  1.6485e-06  1.7358e-05  2.7336e-06  4.7625e-01  1.6300e-06  0:00:01  201
  1800  1.6657e-06  1.7619e-05  2.7046e-06  4.7136e-01  1.6475e-06  0:00:01  200
  1801  1.6832e-06  1.7886e-05  2.6789e-06  4.6735e-01  1.6652e-06  0:00:40  199
  1802  1.7003e-06  1.8151e-05  2.6557e-06  4.6391e-01  1.6825e-06  0:00:32  198
  1803  1.7166e-06  1.8407e-05  2.6345e-06  4.6071e-01  1.6990e-06  0:00:26  197
  1804  1.7321e-06  1.8646e-05  2.6151e-06  4.5761e-01  1.7147e-06  0:00:20  196

  iter  continuity  x-velocity  y-velocity  z-velocity      energy     time/iter
  1805  1.7471e-06  1.8862e-05  2.5970e-06  4.5451e-01  1.7298e-06  0:00:16  195
  1806  1.7623e-06  1.9050e-05  2.5800e-06  4.5134e-01  1.7450e-06  0:00:13  194
  1807  1.7783e-06  1.9206e-05  2.5641e-06  4.4811e-01  1.7611e-06  0:00:10  193
  1808  1.7962e-06  1.9327e-05  2.5491e-06  4.4489e-01  1.7791e-06  0:00:08  192
  1809  1.8170e-06  1.9412e-05  2.5352e-06  4.4194e-01  1.7998e-06  0:00:07  191
  1810  1.8416e-06  1.9461e-05  2.5227e-06  4.3970e-01  1.8244e-06  0:00:05  190
  1811  1.8620e-06  1.9454e-05  2.5129e-06  4.3863e-01  1.8448e-06  0:00:04  189
  1812  1.8758e-06  1.9351e-05  2.5099e-06  4.3875e-01  1.8585e-06  0:00:03  188
  1813  1.7884e-06  1.9135e-05  2.5012e-06  4.3683e-01  1.7701e-06  0:00:03  187
  1814  1.8103e-06  1.9174e-05  2.5075e-06  4.3110e-01  1.7920e-06  0:00:02  186
  1815  1.8524e-06  1.9334e-05  2.5417e-06  4.2635e-01  1.8341e-06  0:00:02  185

  iter  continuity  x-velocity  y-velocity  z-velocity      energy     time/iter
  1816  1.8911e-06  1.9509e-05  2.5837e-06  4.2505e-01  1.8728e-06  0:00:01  184
  1817  1.9371e-06  1.9686e-05  2.6227e-06  4.2741e-01  1.9188e-06  0:00:01  183
  1818  1.9946e-06  1.9869e-05  2.6586e-06  4.3449e-01  1.9763e-06  0:00:01  182
  1819  2.0047e-06  1.9848e-05  2.6763e-06  4.4765e-01  1.9862e-06  0:00:01  181
  1820  2.1932e-06  2.0125e-05  2.6525e-06  4.7070e-01  2.1759e-06  0:00:37  180
  1821  2.2668e-06  2.0334e-05  2.6895e-06  4.9811e-01  2.2495e-06  0:00:29  179
  1822  2.2786e-06  2.0482e-05  2.7649e-06  5.3039e-01  2.2608e-06  0:00:23  178
  1823  2.2852e-06  2.0629e-05  2.8336e-06  5.6867e-01  2.2670e-06  0:00:18  177
  1824  2.2427e-06  2.0434e-05  2.8731e-06  6.1134e-01  2.2239e-06  0:00:15  176
  1825  2.2128e-06  2.0256e-05  2.9095e-06  6.5231e-01  2.1936e-06  0:00:12  175
  1826  2.1873e-06  2.0075e-05  2.9325e-06  6.8914e-01  2.1676e-06  0:00:09  174

  iter  continuity  x-velocity  y-velocity  z-velocity      energy     time/iter
  1827  2.1692e-06  1.9897e-05  2.9461e-06  7.2056e-01  2.1493e-06  0:00:07  173
  1828  2.1640e-06  1.9730e-05  2.9559e-06  7.4719e-01  2.1439e-06  0:00:06  172
  1829  2.1635e-06  1.9575e-05  2.9637e-06  7.7082e-01  2.1434e-06  0:00:05  171
  1830  2.1587e-06  1.9423e-05  2.9732e-06  7.9039e-01  2.1386e-06  0:00:04  170
  1831  2.1513e-06  1.9275e-05  2.9847e-06  8.0524e-01  2.1310e-06  0:00:03  169
  1832  2.1428e-06  1.9131e-05  2.9962e-06  8.1726e-01  2.1225e-06  0:00:02  168
  1833  2.1341e-06  1.8994e-05  3.0064e-06  8.2800e-01  2.1138e-06  0:00:02  167
  1834  2.1253e-06  1.8862e-05  3.0144e-06  8.3600e-01  2.1050e-06  0:00:01  166
  1835  2.1164e-06  1.8737e-05  3.0198e-06  8.4174e-01  2.0961e-06  0:00:01  165
  1836  2.1072e-06  1.8618e-05  3.0224e-06  8.4533e-01  2.0869e-06  0:00:01  164
  1837  2.0978e-06  1.8506e-05  3.0223e-06  8.4663e-01  2.0775e-06  0:00:01  163

  iter  continuity  x-velocity  y-velocity  z-velocity      energy     time/iter
  1838  2.0878e-06  1.8399e-05  3.0197e-06  8.4594e-01  2.0676e-06  0:00:33  162
  1839  2.0778e-06  1.8299e-05  3.0146e-06  8.4392e-01  2.0577e-06  0:00:26  161
  1840  2.0676e-06  1.8206e-05  3.0073e-06  8.4051e-01  2.0475e-06  0:00:21  160
  1841  1.8770e-06  1.7294e-05  2.9953e-06  8.3623e-01  1.8557e-06  0:00:17  159
  1842  1.8877e-06  1.6859e-05  3.0403e-06  8.3093e-01  1.8673e-06  0:00:13  158
  1843  1.8161e-06  1.6438e-05  3.0547e-06  8.2519e-01  1.7955e-06  0:00:10  157
  1844  1.7449e-06  1.6027e-05  3.0209e-06  8.1939e-01  1.7239e-06  0:00:08  156
  1845  1.7099e-06  1.5705e-05  2.9826e-06  8.1334e-01  1.6887e-06  0:00:07  155
  1846  1.6970e-06  1.5481e-05  2.9585e-06  8.0673e-01  1.6756e-06  0:00:05  154
  1847  1.6906e-06  1.5333e-05  2.9439e-06  7.9976e-01  1.6690e-06  0:00:04  153
  1848  1.6844e-06  1.5235e-05  2.9305e-06  7.9228e-01  1.6626e-06  0:00:03  152

  iter  continuity  x-velocity  y-velocity  z-velocity      energy     time/iter
  1849  1.6777e-06  1.5169e-05  2.9139e-06  7.8433e-01  1.6555e-06  0:00:03  151
  1850  1.6714e-06  1.5124e-05  2.8936e-06  7.7612e-01  1.6488e-06  0:00:02  150
  1851  1.6663e-06  1.5092e-05  2.8705e-06  7.6758e-01  1.6434e-06  0:00:02  149
  1852  1.6631e-06  1.5071e-05  2.8458e-06  7.5804e-01  1.6399e-06  0:00:01  148
  1853  1.6585e-06  1.5046e-05  2.8200e-06  7.4788e-01  1.6351e-06  0:00:01  147
  1854  1.6551e-06  1.5021e-05  2.7947e-06  7.3748e-01  1.6314e-06  0:00:01  146
  1855  1.6556e-06  1.5007e-05  2.7711e-06  7.2643e-01  1.6318e-06  0:00:01  145
  1856  1.6588e-06  1.5005e-05  2.7490e-06  7.1465e-01  1.6349e-06  0:00:01  144
  1857  1.6641e-06  1.5013e-05  2.7294e-06  7.0218e-01  1.6401e-06  0:00:29  143
  1858  1.6712e-06  1.5032e-05  2.7125e-06  6.8917e-01  1.6472e-06  0:00:23  142
  1859  1.6800e-06  1.5062e-05  2.6987e-06  6.7607e-01  1.6559e-06  0:00:18  141

  iter  continuity  x-velocity  y-velocity  z-velocity      energy     time/iter
  1860  1.6901e-06  1.5100e-05  2.6881e-06  6.6307e-01  1.6660e-06  0:00:15  140
  1861  1.7880e-06  1.4966e-05  2.6772e-06  6.5001e-01  1.7651e-06  0:00:12  139
  1862  1.9831e-06  1.4922e-05  2.6450e-06  6.3309e-01  1.9623e-06  0:00:09  138
  1863  2.0541e-06  1.4819e-05  2.6275e-06  6.1189e-01  2.0338e-06  0:00:07  137
  1864  2.0558e-06  1.4659e-05  2.6270e-06  5.9135e-01  2.0352e-06  0:00:06  136
  1865  2.0321e-06  1.4478e-05  2.6297e-06  5.7316e-01  2.0109e-06  0:00:05  135
  1866  2.0011e-06  1.4297e-05  2.6330e-06  5.5523e-01  1.9793e-06  0:00:04  134
  1867  1.9690e-06  1.4125e-05  2.6375e-06  5.3715e-01  1.9466e-06  0:00:03  133
  1868  1.9378e-06  1.3967e-05  2.6434e-06  5.1957e-01  1.9149e-06  0:00:02  132
  1869  1.9081e-06  1.3821e-05  2.6509e-06  5.0290e-01  1.8848e-06  0:00:02  131
  1870  1.8805e-06  1.3688e-05  2.6600e-06  4.8841e-01  1.8566e-06  0:00:01  130

  iter  continuity  x-velocity  y-velocity  z-velocity      energy     time/iter
  1871  1.8546e-06  1.3565e-05  2.6705e-06  4.7684e-01  1.8303e-06  0:00:01  129
  1872  1.8305e-06  1.3449e-05  2.6823e-06  4.6775e-01  1.8057e-06  0:00:01  128
  1873  1.8080e-06  1.3341e-05  2.6952e-06  4.6076e-01  1.7828e-06  0:00:01  127
  1874  1.7871e-06  1.3238e-05  2.7090e-06  4.5569e-01  1.7615e-06  0:00:26  126
  1875  1.7677e-06  1.3140e-05  2.7234e-06  4.5247e-01  1.7417e-06  0:00:20  125
  1876  1.7497e-06  1.3045e-05  2.7381e-06  4.5092e-01  1.7233e-06  0:00:16  124
  1877  1.7330e-06  1.2953e-05  2.7530e-06  4.5130e-01  1.7062e-06  0:00:13  123
  1878  1.7175e-06  1.2862e-05  2.7677e-06  4.5374e-01  1.6904e-06  0:00:10  122
  1879  1.7032e-06  1.2773e-05  2.7820e-06  4.5771e-01  1.6757e-06  0:00:08  121
  1880  1.6899e-06  1.2685e-05  2.7959e-06  4.6273e-01  1.6621e-06  0:00:06  120
  1881  1.6777e-06  1.2598e-05  2.8092e-06  4.6861e-01  1.6496e-06  0:00:05  119

  iter  continuity  x-velocity  y-velocity  z-velocity      energy     time/iter
  1882  1.6664e-06  1.2510e-05  2.8217e-06  4.7570e-01  1.6380e-06  0:00:04  118
  1883  1.6561e-06  1.2423e-05  2.8335e-06  4.8375e-01  1.6273e-06  0:00:03  117
  1884  1.6466e-06  1.2335e-05  2.8445e-06  4.9150e-01  1.6176e-06  0:00:03  116
  1885  1.6379e-06  1.2247e-05  2.8546e-06  4.9819e-01  1.6086e-06  0:00:02  115
  1886  1.6300e-06  1.2159e-05  2.8637e-06  5.0437e-01  1.6003e-06  0:00:02  114
  1887  1.6251e-06  1.2072e-05  2.8704e-06  5.1028e-01  1.5952e-06  0:00:01  113
  1888  1.6210e-06  1.1980e-05  2.8766e-06  5.1689e-01  1.5908e-06  0:00:01  112
  1889  1.6168e-06  1.1880e-05  2.8825e-06  5.2381e-01  1.5864e-06  0:00:01  111
  1890  1.6125e-06  1.1775e-05  2.8879e-06  5.3094e-01  1.5819e-06  0:00:01  110
  1891  1.6083e-06  1.1665e-05  2.8925e-06  5.3809e-01  1.5774e-06  0:00:01  109
  1892  1.6044e-06  1.1553e-05  2.8966e-06  5.4556e-01  1.5732e-06  0:00:22  108

  iter  continuity  x-velocity  y-velocity  z-velocity      energy     time/iter
  1893  1.6012e-06  1.1442e-05  2.9003e-06  5.5378e-01  1.5697e-06  0:00:17  107
  1894  1.5990e-06  1.1334e-05  2.9039e-06  5.6340e-01  1.5673e-06  0:00:14  106
  1895  1.5983e-06  1.1233e-05  2.9075e-06  5.7507e-01  1.5664e-06  0:00:11  105
  1896  1.5995e-06  1.1141e-05  2.9115e-06  5.8798e-01  1.5675e-06  0:00:09  104
  1897  1.6031e-06  1.1062e-05  2.9163e-06  5.9906e-01  1.5709e-06  0:00:07  103
  1898  1.6092e-06  1.1000e-05  2.9217e-06  6.0742e-01  1.5771e-06  0:00:05  102
  1899  1.6188e-06  1.0959e-05  2.9285e-06  6.1653e-01  1.5866e-06  0:00:04  101
  1900  1.6320e-06  1.0943e-05  2.9368e-06  6.2740e-01  1.6000e-06  0:00:03  100
  1901  1.6508e-06  1.0961e-05  2.9465e-06  6.4006e-01  1.6189e-06  0:00:03   99
  1902  1.6737e-06  1.1013e-05  2.9581e-06  6.5438e-01  1.6422e-06  0:00:02   98
  1903  1.7008e-06  1.1101e-05  2.9719e-06  6.7308e-01  1.6697e-06  0:00:02   97

  iter  continuity  x-velocity  y-velocity  z-velocity      energy     time/iter
  1904  1.7334e-06  1.1233e-05  2.9880e-06  6.9749e-01  1.7027e-06  0:00:01   96
  1905  1.7206e-06  1.1182e-05  2.9964e-06  7.2627e-01  1.6895e-06  0:00:01   95
  1906  1.7120e-06  1.1147e-05  3.0061e-06  7.5501e-01  1.6808e-06  0:00:01   94
  1907  1.7074e-06  1.1139e-05  3.0164e-06  7.8158e-01  1.6761e-06  0:00:01   93
  1908  1.7074e-06  1.1148e-05  3.0249e-06  8.1811e-01  1.6760e-06  0:00:01   92
  1909  1.7106e-06  1.1168e-05  3.0326e-06  8.4990e-01  1.6793e-06  0:00:00   91
  1910  1.7152e-06  1.1194e-05  3.0403e-06  8.6161e-01  1.6841e-06  0:00:00   90
  1911  1.7202e-06  1.1222e-05  3.0484e-06  8.6503e-01  1.6892e-06  0:00:18   89
  1912  1.7251e-06  1.1253e-05  3.0566e-06  8.6270e-01  1.6943e-06  0:00:14   88
  1913  1.7297e-06  1.1284e-05  3.0647e-06  8.5803e-01  1.6990e-06  0:00:11   87
  1914  1.7341e-06  1.1315e-05  3.0723e-06  8.5182e-01  1.7036e-06  0:00:09   86

  iter  continuity  x-velocity  y-velocity  z-velocity      energy     time/iter
  1915  1.7385e-06  1.1346e-05  3.0794e-06  8.4747e-01  1.7081e-06  0:00:07   85
  1916  1.7428e-06  1.1376e-05  3.0857e-06  8.4586e-01  1.7126e-06  0:00:06   84
  1917  1.7472e-06  1.1406e-05  3.0911e-06  8.4733e-01  1.7172e-06  0:00:04   83
  1918  1.7517e-06  1.1434e-05  3.0954e-06  8.5076e-01  1.7219e-06  0:00:03   82
  1919  1.7169e-06  1.1452e-05  3.0928e-06  8.5452e-01  1.6867e-06  0:00:03   81
  1920  1.6963e-06  1.1553e-05  3.0933e-06  8.5499e-01  1.6659e-06  0:00:02   80
  1921  1.6842e-06  1.1691e-05  3.0962e-06  8.5023e-01  1.6539e-06  0:00:02   79
  1922  1.6789e-06  1.1859e-05  3.0996e-06  8.4033e-01  1.6487e-06  0:00:01   78
  1923  1.6791e-06  1.2057e-05  3.1041e-06  8.2592e-01  1.6492e-06  0:00:01   77
  1924  1.6834e-06  1.2288e-05  3.1102e-06  8.0810e-01  1.6537e-06  0:00:01   76
  1925  1.6905e-06  1.2553e-05  3.1179e-06  7.8767e-01  1.6611e-06  0:00:01   75

  iter  continuity  x-velocity  y-velocity  z-velocity      energy     time/iter
  1926  1.7004e-06  1.2855e-05  3.1271e-06  7.6557e-01  1.6714e-06  0:00:01   74
  1927  1.7136e-06  1.3196e-05  3.1378e-06  7.4247e-01  1.6850e-06  0:00:00   73
  1928  1.7309e-06  1.3580e-05  3.1501e-06  7.1904e-01  1.7028e-06  0:00:00   72
  1929  1.7536e-06  1.4010e-05  3.1646e-06  6.9493e-01  1.7260e-06  0:00:14   71
  1930  1.7828e-06  1.4490e-05  3.1814e-06  6.7332e-01  1.7558e-06  0:00:11   70
  1931  1.8197e-06  1.5024e-05  3.2012e-06  6.5148e-01  1.7934e-06  0:00:09   69
  1932  1.8657e-06  1.5616e-05  3.2243e-06  6.3246e-01  1.8401e-06  0:00:07   68
  1933  1.9222e-06  1.6271e-05  3.2515e-06  6.1704e-01  1.8973e-06  0:00:06   67
  1934  1.9903e-06  1.6992e-05  3.2830e-06  6.0665e-01  1.9664e-06  0:00:04   66
  1935  2.0716e-06  1.7783e-05  3.3197e-06  6.0329e-01  2.0486e-06  0:00:03   65
  1936  2.1673e-06  1.8649e-05  3.3619e-06  6.0836e-01  2.1453e-06  0:00:03   64

  iter  continuity  x-velocity  y-velocity  z-velocity      energy     time/iter
  1937  2.2786e-06  1.9593e-05  3.4104e-06  6.2462e-01  2.2577e-06  0:00:02   63
  1938  2.4068e-06  2.0618e-05  3.4658e-06  6.5433e-01  2.3869e-06  0:00:02   62
  1939  2.5528e-06  2.1728e-05  3.5287e-06  6.9856e-01  2.5338e-06  0:00:01   61
  1940  2.7174e-06  2.2922e-05  3.5996e-06  7.5716e-01  2.6994e-06  0:00:01   60
  1941  2.9012e-06  2.4202e-05  3.6790e-06  8.2958e-01  2.8841e-06  0:00:01   59
  1942  3.1045e-06  2.5567e-05  3.7674e-06  9.1511e-01  3.0883e-06  0:00:01   58
  1943  3.3274e-06  2.7013e-05  3.8648e-06  1.0163e+00  3.3118e-06  0:00:01   57
  1944  3.5691e-06  2.8532e-05  3.9713e-06  1.1325e+00  3.5542e-06  0:00:00   56
  1945  3.8286e-06  3.0118e-05  4.0866e-06  1.2611e+00  3.8141e-06  0:00:00   55
  1946  4.1041e-06  3.1755e-05  4.2099e-06  1.3991e+00  4.0901e-06  0:00:00   54
  1947  4.3883e-06  3.3419e-05  4.3399e-06  1.5492e+00  4.3746e-06  0:00:11   53

  iter  continuity  x-velocity  y-velocity  z-velocity      energy     time/iter
  1948  4.6834e-06  3.5103e-05  4.4731e-06  1.7324e+00  4.6698e-06  0:00:08   52
  1949  4.9913e-06  3.6747e-05  4.6064e-06  1.9155e+00  4.9778e-06  0:00:07   51
  1950  5.3164e-06  3.8441e-05  4.7471e-06  2.0583e+00  5.3029e-06  0:00:05   50
  1951  3.8691e-06  3.4512e-05  4.5486e-06  2.2203e+00  3.8525e-06  0:00:04   49
  1952  3.6291e-06  3.2847e-05  4.4675e-06  2.3052e+00  3.6140e-06  0:00:03   48
  1953  3.3099e-06  3.2028e-05  4.5425e-06  2.3157e+00  3.2948e-06  0:00:03   47
  1954  2.9346e-06  3.1189e-05  4.4469e-06  2.2808e+00  2.9189e-06  0:00:02   46
  1955  2.6753e-06  3.0422e-05  4.2639e-06  2.2120e+00  2.6592e-06  0:00:02   45
  1956  2.5231e-06  2.9775e-05  4.1110e-06  2.1277e+00  2.5070e-06  0:00:01   44
  1957  2.4270e-06  2.9229e-05  4.0107e-06  2.0394e+00  2.4107e-06  0:00:01   43
  1958  2.3549e-06  2.8746e-05  3.9420e-06  1.9572e+00  2.3386e-06  0:00:01   42

  iter  continuity  x-velocity  y-velocity  z-velocity      energy     time/iter
  1959  2.2958e-06  2.8291e-05  3.8837e-06  1.8798e+00  2.2795e-06  0:00:01   41
  1960  2.3823e-06  2.7030e-05  3.8038e-06  1.8069e+00  2.3677e-06  0:00:00   40
  1961  2.8584e-06  2.6203e-05  3.6033e-06  1.7268e+00  2.8467e-06  0:00:00   39
  1962  2.9345e-06  2.5262e-05  3.4898e-06  1.6467e+00  2.9230e-06  0:00:08   38
  1963  2.8249e-06  2.4208e-05  3.4340e-06  1.5703e+00  2.8127e-06  0:00:06   37
  1964  2.6727e-06  2.3143e-05  3.3695e-06  1.4965e+00  2.6597e-06  0:00:05   36
  1965  2.5279e-06  2.2127e-05  3.2926e-06  1.4284e+00  2.5142e-06  0:00:04   35
  1966  2.4029e-06  2.1197e-05  3.2128e-06  1.3634e+00  2.3887e-06  0:00:03   34
  1967  2.2994e-06  2.0371e-05  3.1363e-06  1.2982e+00  2.2850e-06  0:00:02   33
  1968  2.2166e-06  1.9661e-05  3.0667e-06  1.2375e+00  2.2020e-06  0:00:02   32
  1969  2.1524e-06  1.9071e-05  3.0061e-06  1.1802e+00  2.1378e-06  0:00:01   31

  iter  continuity  x-velocity  y-velocity  z-velocity      energy     time/iter
  1970  2.1040e-06  1.8603e-05  2.9557e-06  1.1300e+00  2.0894e-06  0:00:01   30
  1971  2.0685e-06  1.8254e-05  2.9162e-06  1.0837e+00  2.0540e-06  0:00:01   29
  1972  2.0433e-06  1.8018e-05  2.8875e-06  1.0406e+00  2.0290e-06  0:00:01   28
  1973  2.0261e-06  1.7887e-05  2.8692e-06  1.0012e+00  2.0120e-06  0:00:00   27
  1974  2.0487e-06  1.7951e-05  2.8594e-06  9.6727e-01  2.0351e-06  0:00:00   26
  1975  2.1179e-06  1.8117e-05  2.8482e-06  9.3840e-01  2.1050e-06  0:00:00   25
  1976  2.1347e-06  1.8238e-05  2.8518e-06  9.1425e-01  2.1221e-06  0:00:00   24
  1977  2.1195e-06  1.8334e-05  2.8582e-06  8.9419e-01  2.1070e-06  0:00:00   23
  1978  1.9566e-06  1.8000e-05  2.8475e-06  8.7726e-01  1.9434e-06  0:00:00   22
  1979  2.0250e-06  1.8277e-05  2.8226e-06  8.6348e-01  2.0123e-06  0:00:00   21
  1980  2.0719e-06  1.8637e-05  2.8367e-06  8.5462e-01  2.0596e-06  0:00:04   20

  iter  continuity  x-velocity  y-velocity  z-velocity      energy     time/iter
  1981  2.0947e-06  1.8978e-05  2.8588e-06  8.5027e-01  2.0826e-06  0:00:03   19
  1982  2.1054e-06  1.9283e-05  2.8749e-06  8.5066e-01  2.0934e-06  0:00:02   18
  1983  2.1057e-06  1.9537e-05  2.8836e-06  8.5523e-01  2.0939e-06  0:00:02   17
  1984  2.0946e-06  1.9728e-05  2.8841e-06  8.6225e-01  2.0830e-06  0:00:01   16
  1985  2.0711e-06  1.9845e-05  2.8756e-06  8.7050e-01  2.0598e-06  0:00:01   15
  1986  2.0351e-06  1.9877e-05  2.8575e-06  8.7858e-01  2.0240e-06  0:00:01   14
  1987  1.9876e-06  1.9823e-05  2.8300e-06  8.8543e-01  1.9767e-06  0:00:01   13
  1988  1.9302e-06  1.9682e-05  2.7932e-06  8.9020e-01  1.9196e-06  0:00:00   12
  1989  1.8654e-06  1.9460e-05  2.7474e-06  8.9132e-01  1.8550e-06  0:00:00   11
  1990  1.7958e-06  1.9165e-05  2.6933e-06  8.8871e-01  1.7857e-06  0:00:00   10
  1991  1.7245e-06  1.8808e-05  2.6321e-06  8.8219e-01  1.7146e-06  0:00:00    9

  iter  continuity  x-velocity  y-velocity  z-velocity      energy     time/iter
  1992  1.6542e-06  1.8404e-05  2.5651e-06  8.7153e-01  1.6446e-06  0:00:00    8
  1993  1.5875e-06  1.7967e-05  2.4942e-06  8.5602e-01  1.5783e-06  0:00:00    7
  1994  1.5258e-06  1.7513e-05  2.4208e-06  8.3856e-01  1.5170e-06  0:00:00    6
  1995  1.4720e-06  1.7056e-05  2.3468e-06  8.1898e-01  1.4636e-06  0:00:00    5
  1996  1.4068e-06  1.6582e-05  2.2735e-06  7.9883e-01  1.3988e-06  0:00:00    4
  1997  1.3054e-06  1.6064e-05  2.2003e-06  7.7729e-01  1.2975e-06  0:00:00    3
  1998  1.2652e-06  1.5645e-05  2.1283e-06  7.5152e-01  1.2578e-06  0:00:00    2
  1999  1.2405e-06  1.5281e-05  2.0596e-06  7.2464e-01  1.2336e-06  0:00:00    1
  2000  1.2013e-06  1.4910e-05  1.9939e-06  6.9812e-01  1.1947e-06  0:00:00    0

> 
adjoint/                parallel/               server/
define/                 parametric-study/       solve/
display/                plot/                   surface/
exit                    preferences/            turbo-workflow/
file/                   print-license-usage     views/
mesh/                   report/

> /file/write-case-data project1
Fast-loading "C:\PROGRA~1\ANSYSI~1\v231\fluent\fluent23.1.0\\addons\afd\lib\hdfio.bin"
Done.

Writing to Engs-30669:"C:\Users\kebl7595\Desktop\CFD\Runs\Actual Data\12 degrees\project1.cas.h5" in NODE0 mode and compression level 1 ...
       12996 cells,     1 zone  ...
       43722 faces,     8 zones ...
       17864 nodes,     1 zone  ...
  Done.
Done.

Writing to Engs-30669:"C:\Users\kebl7595\Desktop\CFD\Runs\Actual Data\12 degrees\project1.dat.h5" in NODE0 mode and compression level 1 ...
  Writing results.
Done.

> /file/export/ascii "./surface.dat" wing te () no pressure mach-number quit no

Writing "./surface.dat"...

Writing information to ascii file ...
Done.


> /plot/plot y "data.dat" no n n pressure-coefficient no n x-coordinate wing ()

> /report/forces/wall-forces y -0.20791 0.97815 0 y "Force"

> /exit

Posting ANSYS Product Improvement Program performance data 
Done.
Auto-Transcript Stop Time:  14:43:32, 20 May 2024 GMT Daylight Time 
Total Transcript Time: 3 Minute 30 Second.
