Auto-Transcript Start Time:  10:44:24, 21 May 2024 GMT Daylight Time 
Current Directory: "C:\Users\kebl7595\Desktop\CFD\Runs\Viscous\21 degree"

              Welcome to ANSYS Fluent 2023 R1

              Copyright 1987-2023 ANSYS, Inc. All Rights Reserved.
              Unauthorized use, distribution or duplication is prohibited.
              This product is subject to U.S. laws governing export and re-export.
              For full Legal Notice, see documentation.

Build Time: Nov 28 2022 09:52:02 EST  Build Id: 10208  
 
Connected License Server List:	1055@ansyslic.eng.ox.ac.uk

*********************************************
Info: Your license enables 4-way parallel execution.
For faster simulations, please start the application with the appropriate parallel options.
*********************************************


     --------------------------------------------------------------
     This is an academic version of ANSYS FLUENT. Usage of this product
     license is limited to the terms and conditions specified in your ANSYS
     license form, additional terms section.
     --------------------------------------------------------------
Host spawning Node 0 on machine "Engs-30669" (win64).

------------------------------------------------------------------------------------
ID    Hostname    Core  O.S.         PID    Vendor                                 
------------------------------------------------------------------------------------
n0    Engs-30669  1/32  Windows-x64  48032  13th Gen Intel(R) Core(TM) i9-13900    
host  Engs-30669        Windows-x64  11616  13th Gen Intel(R) Core(TM) i9-13900    

MPI Option Selected: intel
------------------------------------------------------------------------------------

Cleanup script file is C:\\Users\\kebl7595\\Desktop\\CFD\\Runs\\Viscous\\21 degree\\cleanup-fluent-Engs-30669-11616.bat
QA Service Message :
QA Services Agreement Enabled. This application is included in the scope of an ANSYS QA Services Agreement.
Posting ANSYS Product Improvement Program startup data
Done.

Reading journal file C:/Users/kebl7595/Desktop/CFD/Runs/Viscous/21 degree/project1.jou...

> /file/set-batch-options no no no 

> 
define/                 parametric-study/       solve/
display/                plot/                   surface/
exit                    preferences/            switch-to-meshing-mode
file/                   print-license-usage     turbo-workflow/
mesh/                   report/                 views/
parallel/               server/

> /file/import/cgns/mesh  "./project1.cgns"
Engs-30669 has other FLUENT parallel processes running.                       Process affinity not being set.

Importing "./project1.cgns"

Opening library "C:\\PROGRA~1\\ANSYSI~1\\v231\\fluent\\fluent23.1.0\\vki\\win64\\devtools4.4.6.dll"... done.

Read    17864 nodes
   12996 hexahedral cells, zone  1
    9462 quadrilateral wall faces, zone  2.
   33972 quadrilateral interior faces, zone  3.
     282 quadrilateral interface faces, zone  4.
       6 quadrilateral wall faces, zone  5.

Building...
     mesh
     materials,
     interface,
     domains,
     zones,
	default_exterior-1
	interface-default_subface
	default_interior-1
	default_subface
	default
     parallel,
The automatic selection for flux type has changed to Rhie-Chow: momentum based.

Done.


> 
adjoint/                parallel/               server/
define/                 parametric-study/       solve/
display/                plot/                   surface/
exit                    preferences/            turbo-workflow/
file/                   print-license-usage     views/
mesh/                   report/

> /define/models/solver/density-based-implicit yes

> 
adjoint/                parallel/               server/
define/                 parametric-study/       solve/
display/                plot/                   surface/
exit                    preferences/            turbo-workflow/
file/                   print-license-usage     views/
mesh/                   report/

> /define/models/energy? yes yes invalid command [yes]
yes

> /define/models/viscous/kw-standard? yes

> 
adjoint/                parallel/               server/
define/                 parametric-study/       solve/
display/                plot/                   surface/
exit                    preferences/            turbo-workflow/
file/                   print-license-usage     views/
mesh/                   report/

> /define/materials/change-create air air air is a fluid
yes 
Density
ideal-gas no data required.

no no no no no no

> 
adjoint/                parallel/               server/
define/                 parametric-study/       solve/
display/                plot/                   surface/
exit                    preferences/            turbo-workflow/
file/                   print-license-usage     views/
mesh/                   report/

> /mesh/modify-zones/sep-face-zone-angle 2 90 yes

 4332 faces in contiguous region 0
 228 faces in contiguous region 1
 342 faces in contiguous region 2
 4332 faces in contiguous region 3
 228 faces in contiguous region 4
 Separates zone 2 into 5 zone(s).
Updating new zone information...
   created new zone default_subface:010 from default_subface
   created new zone default_subface:009 from default_subface
   created new zone default_subface:008 from default_subface
   created new zone default_subface:007 from default_subface
done.

> 
adjoint/                parallel/               server/
define/                 parametric-study/       solve/
display/                plot/                   surface/
exit                    preferences/            turbo-workflow/
file/                   print-license-usage     views/
mesh/                   report/

> /define/boundary-conditions/zone-name  5   te

> /define/boundary-conditions/zone-name  7 wing

> /define/boundary-conditions/zone-name  2 sym1

> /define/boundary-conditions/zone-name  9 sym2

> 
adjoint/                parallel/               server/
define/                 parametric-study/       solve/
display/                plot/                   surface/
exit                    preferences/            turbo-workflow/
file/                   print-license-usage     views/
mesh/                   report/

> /define/boundary-conditions/zone-name  8 far1

> /define/boundary-conditions/zone-name 10 far2

> 
adjoint/                parallel/               server/
define/                 parametric-study/       solve/
display/                plot/                   surface/
exit                    preferences/            turbo-workflow/
file/                   print-license-usage     views/
mesh/                   report/

> /define/boundary-conditions/zone-type  8 pressure-far-field

> /define/boundary-conditions/zone-type 10 pressure-far-field

> /define/boundary-conditions/zone-type  2 symmetry

> /define/boundary-conditions/zone-type  9 symmetry

> 
adjoint/                parallel/               server/
define/                 parametric-study/       solve/
display/                plot/                   surface/
exit                    preferences/            turbo-workflow/
file/                   print-license-usage     views/
mesh/                   report/

> /define/boundary-conditions/pressure-far-field (far2 far1)
far1 no 0 no 0.1 no 300 yes no 0.93358 no 0.35837 no 0. no yes 5 0.02

> /define/boundary-conditions/pressure-far-field (far2 far1)
far2 no 0 no 0.1 no 300 yes no 0.93358 no 0.35837 no 0. no yes 5 0.02

> 
adjoint/                parallel/               server/
define/                 parametric-study/       solve/
display/                plot/                   surface/
exit                    preferences/            turbo-workflow/
file/                   print-license-usage     views/
mesh/                   report/

> /solve/initialize/compute-defaults/pressure-far-field (far2 far1)
far1

> /solve/initialize/initialize-flow

> 
adjoint/                parallel/               server/
define/                 parametric-study/       solve/
display/                plot/                   surface/
exit                    preferences/            turbo-workflow/
file/                   print-license-usage     views/
mesh/                   report/

> /solve/monitors/residual/convergence-criteria 1.e-9 1.e-9 1.e-9 1.e-9 1.e-9 1.e-9 1.e-9

> /solve/iterate 2000

  iter  continuity  x-velocity  y-velocity  z-velocity      energy           k       omega     time/iter
     1  1.0000e+00  1.0000e+00  1.0000e+00  1.0000e+00  1.0000e+00  1.7258e-01  1.2929e-01  0:00:00 1999
     2  5.0173e-01  4.4135e-01  4.5930e-01  1.0000e+00  5.0222e-01  1.3021e-01  1.0146e-01  0:33:18 1998
     3  2.7200e-01  2.1238e-01  2.2449e-01  9.5920e-01  2.7219e-01  1.0167e-01  8.2499e-02  0:26:38 1997
     4  1.6977e-01  1.3531e-01  1.2934e-01  7.0730e-01  1.6983e-01  8.2453e-02  6.8602e-02  0:21:17 1996
     5  1.2136e-01  1.0155e-01  8.5980e-02  6.4204e-01  1.2138e-01  6.9865e-02  5.8529e-02  0:17:01 1995
     6  9.6934e-02  7.4726e-02  6.1253e-02  7.2735e-01  9.6974e-02  6.0190e-02  5.1293e-02  0:13:37 1994
     7  8.2882e-02  5.6777e-02  4.6191e-02  7.4470e-01  8.2949e-02  5.2449e-02  4.5583e-02  0:10:53 1993
     8  7.3178e-02  4.5291e-02  3.6841e-02  7.4693e-01  7.3258e-02  4.6156e-02  4.0787e-02  0:08:42 1992
     9  6.6383e-02  3.8041e-02  3.0898e-02  7.3716e-01  6.6464e-02  4.0973e-02  3.6720e-02  0:13:36 1991
    10  6.1686e-02  3.3789e-02  2.6881e-02  7.1027e-01  6.1758e-02  3.6712e-02  3.3272e-02  0:10:52 1990
    11  5.8603e-02  3.1661e-02  2.4008e-02  6.8535e-01  5.8661e-02  3.3222e-02  3.0328e-02  0:08:42 1989

  iter  continuity  x-velocity  y-velocity  z-velocity      energy           k       omega     time/iter
    12  5.6873e-02  3.0952e-02  2.1941e-02  6.5922e-01  5.6915e-02  3.0336e-02  2.7811e-02  0:06:57 1988
    13  5.6275e-02  3.1255e-02  2.0464e-02  6.4021e-01  5.6301e-02  2.7908e-02  2.5661e-02  0:05:33 1987
    14  5.6599e-02  3.2293e-02  1.9491e-02  6.4421e-01  5.6609e-02  2.5847e-02  2.3785e-02  0:04:27 1986
    15  5.7634e-02  3.3665e-02  1.8917e-02  6.7268e-01  5.7629e-02  2.4072e-02  2.2138e-02  0:10:10 1985
    16  5.9224e-02  3.5423e-02  1.8610e-02  7.1868e-01  5.9204e-02  2.2545e-02  2.0684e-02  0:08:08 1984
    17  6.1212e-02  3.7353e-02  1.8657e-02  7.8008e-01  6.1176e-02  2.1202e-02  1.9403e-02  0:06:30 1983
    18  6.3442e-02  3.9399e-02  1.8955e-02  8.5465e-01  6.3390e-02  2.0025e-02  1.8259e-02  0:05:12 1982
    19  6.5794e-02  4.1535e-02  1.9361e-02  9.4325e-01  6.5724e-02  1.8974e-02  1.7235e-02  0:10:46 1981
    20  6.8135e-02  4.3356e-02  2.0022e-02  1.0450e+00  6.8045e-02  1.8037e-02  1.6315e-02  0:08:36 1980
    21  7.0361e-02  4.4864e-02  2.0900e-02  1.1571e+00  7.0249e-02  1.7187e-02  1.5484e-02  0:06:53 1979
    22  7.2369e-02  4.6285e-02  2.1570e-02  1.2713e+00  7.2233e-02  1.6415e-02  1.4733e-02  0:05:30 1978

  iter  continuity  x-velocity  y-velocity  z-velocity      energy           k       omega     time/iter
    23  7.4100e-02  4.7461e-02  2.2336e-02  1.3797e+00  7.3937e-02  1.5714e-02  1.4044e-02  0:04:24 1977
    24  7.5473e-02  4.8347e-02  2.3106e-02  1.4750e+00  7.5282e-02  1.5074e-02  1.3412e-02  0:03:31 1976
    25  7.6397e-02  4.8942e-02  2.3792e-02  1.5503e+00  7.6176e-02  1.4489e-02  1.2827e-02  0:09:24 1975
    26  7.6831e-02  4.8980e-02  2.4439e-02  1.5996e+00  7.6578e-02  1.3954e-02  1.2283e-02  0:07:31 1974
    27  7.6805e-02  4.8659e-02  2.4906e-02  1.6203e+00  7.6520e-02  1.3463e-02  1.1781e-02  0:06:00 1973
    28  7.6329e-02  4.8381e-02  2.4905e-02  1.6089e+00  7.6013e-02  1.3009e-02  1.1310e-02  0:04:48 1972
    29  7.5376e-02  4.7936e-02  2.4673e-02  1.5721e+00  7.5029e-02  1.2595e-02  1.0866e-02  0:03:50 1971
    30  7.4020e-02  4.7356e-02  2.4206e-02  1.5114e+00  7.3643e-02  1.2205e-02  1.0449e-02  0:03:04 1970
    31  7.2328e-02  4.6410e-02  2.3750e-02  1.4309e+00  7.1923e-02  1.1840e-02  1.0053e-02  0:09:01 1969
    32  7.0303e-02  4.5311e-02  2.3213e-02  1.3448e+00  6.9871e-02  1.1504e-02  9.6699e-03  0:07:13 1968
    33  6.7950e-02  4.4300e-02  2.2499e-02  1.2649e+00  6.7495e-02  1.1183e-02  9.3001e-03  0:05:46 1967

  iter  continuity  x-velocity  y-velocity  z-velocity      energy           k       omega     time/iter
    34  6.5321e-02  4.3313e-02  2.1884e-02  1.2104e+00  6.4846e-02  1.0885e-02  8.9474e-03  0:04:37 1966
    35  6.2472e-02  4.2267e-02  2.1543e-02  1.1903e+00  6.1978e-02  1.0613e-02  8.6187e-03  0:03:41 1965
    36  5.9425e-02  4.1119e-02  2.1238e-02  1.2060e+00  5.8916e-02  1.0357e-02  8.3138e-03  0:02:57 1964
    37  5.6223e-02  3.9883e-02  2.1596e-02  1.2588e+00  5.5702e-02  1.0124e-02  8.0232e-03  0:02:21 1963
    38  5.2899e-02  3.8617e-02  2.2465e-02  1.3453e+00  5.2369e-02  9.9243e-03  7.7415e-03  0:08:25 1962
    39  4.9512e-02  3.7389e-02  2.3723e-02  1.4320e+00  4.8976e-02  9.7579e-03  7.4891e-03  0:06:44 1961
    40  4.6095e-02  3.5953e-02  2.5494e-02  1.5159e+00  4.5555e-02  9.6072e-03  7.2680e-03  0:05:23 1960
    41  4.2677e-02  3.5004e-02  2.7518e-02  1.5860e+00  4.2135e-02  9.4888e-03  7.0543e-03  0:04:18 1959
    42  3.9269e-02  3.4348e-02  2.9817e-02  1.6351e+00  3.8728e-02  9.3915e-03  6.8504e-03  0:03:27 1958
    43  3.5894e-02  3.3919e-02  3.2329e-02  1.6605e+00  3.5356e-02  9.3203e-03  6.6571e-03  0:02:45 1957
    44  3.2582e-02  3.3694e-02  3.4964e-02  1.6618e+00  3.2048e-02  9.2831e-03  6.4784e-03  0:02:12 1956

  iter  continuity  x-velocity  y-velocity  z-velocity      energy           k       omega     time/iter
    45  2.9375e-02  3.3727e-02  3.7649e-02  1.6418e+00  2.8847e-02  9.2517e-03  6.2941e-03  0:08:17 1955
    46  2.6306e-02  3.4026e-02  4.0325e-02  1.6020e+00  2.5785e-02  9.2450e-03  6.1172e-03  0:06:37 1954
    47  2.3412e-02  3.4619e-02  4.2941e-02  1.5441e+00  2.2900e-02  9.2679e-03  5.9742e-03  0:05:18 1953
    48  2.0734e-02  3.5483e-02  4.5456e-02  1.4730e+00  2.0235e-02  9.3257e-03  5.8358e-03  0:04:14 1952
    49  1.8317e-02  3.6561e-02  4.7839e-02  1.3925e+00  1.7835e-02  9.3798e-03  5.6965e-03  0:03:23 1951
    50  1.6205e-02  3.7847e-02  5.0054e-02  1.3110e+00  1.5746e-02  9.4716e-03  5.5533e-03  0:02:42 1950
    51  1.4456e-02  3.9347e-02  5.2037e-02  1.2333e+00  1.4029e-02  9.6109e-03  5.4062e-03  0:02:10 1949
    52  1.3091e-02  4.0876e-02  5.3763e-02  1.1656e+00  1.2707e-02  9.7703e-03  5.2921e-03  0:08:13 1948
    53  1.2127e-02  4.2543e-02  5.5266e-02  1.1114e+00  1.1799e-02  9.9399e-03  5.1959e-03  0:06:34 1947
    54  1.1568e-02  4.4375e-02  5.6514e-02  1.0747e+00  1.1304e-02  1.0123e-02  5.0884e-03  0:05:15 1946
    55  1.1396e-02  4.6117e-02  5.7595e-02  1.0611e+00  1.1199e-02  1.0351e-02  4.9866e-03  0:04:12 1945

  iter  continuity  x-velocity  y-velocity  z-velocity      energy           k       omega     time/iter
    56  1.1542e-02  4.7818e-02  5.8462e-02  1.0653e+00  1.1409e-02  1.0580e-02  4.9033e-03  0:03:22 1944
    57  1.1919e-02  4.9477e-02  5.9092e-02  1.0797e+00  1.1841e-02  1.0822e-02  4.8192e-03  0:02:41 1943
    58  1.2457e-02  5.1126e-02  5.9480e-02  1.0999e+00  1.2423e-02  1.1086e-02  4.7328e-03  0:08:37 1942
    59  1.3086e-02  5.2778e-02  5.9615e-02  1.1245e+00  1.3086e-02  1.1357e-02  4.6459e-03  0:06:54 1941
    60  1.3754e-02  5.4409e-02  5.9505e-02  1.1488e+00  1.3779e-02  1.1661e-02  4.5543e-03  0:05:31 1940
    61  1.4427e-02  5.6000e-02  5.9160e-02  1.1725e+00  1.4468e-02  1.1953e-02  4.4802e-03  0:04:24 1939
    62  1.5061e-02  5.7449e-02  5.8544e-02  1.1959e+00  1.5113e-02  1.2227e-02  4.4267e-03  0:03:31 1938
    63  1.5641e-02  5.8685e-02  5.7690e-02  1.2206e+00  1.5700e-02  1.2534e-02  4.3783e-03  0:02:49 1937
    64  1.6167e-02  5.9742e-02  5.6662e-02  1.2431e+00  1.6229e-02  1.2848e-02  4.3599e-03  0:02:15 1936
    65  1.6616e-02  6.0623e-02  5.5410e-02  1.2625e+00  1.6678e-02  1.3191e-02  4.3279e-03  0:08:15 1935
    66  1.6980e-02  6.1323e-02  5.3983e-02  1.2699e+00  1.7039e-02  1.3572e-02  4.3134e-03  0:06:36 1934

  iter  continuity  x-velocity  y-velocity  z-velocity      energy           k       omega     time/iter
    67  1.7256e-02  6.1825e-02  5.2437e-02  1.2668e+00  1.7310e-02  1.3982e-02  4.3113e-03  0:05:17 1933
    68  1.7409e-02  6.1944e-02  5.0666e-02  1.2562e+00  1.7456e-02  1.4416e-02  4.3142e-03  0:04:13 1932
    69  1.7444e-02  6.1748e-02  4.8727e-02  1.2389e+00  1.7484e-02  1.4842e-02  4.2983e-03  0:03:22 1931
    70  1.7359e-02  6.1264e-02  4.6674e-02  1.2131e+00  1.7391e-02  1.5280e-02  4.2705e-03  0:02:42 1930
    71  1.7148e-02  6.0559e-02  4.4479e-02  1.1817e+00  1.7172e-02  1.5731e-02  4.2588e-03  0:08:35 1929
    72  1.6813e-02  5.9691e-02  4.2253e-02  1.1540e+00  1.6829e-02  1.6181e-02  4.2507e-03  0:06:52 1928
    73  1.6339e-02  5.8551e-02  4.0001e-02  1.1310e+00  1.6346e-02  1.6643e-02  4.2330e-03  0:05:29 1927
    74  1.5689e-02  5.6763e-02  3.7646e-02  1.1127e+00  1.5689e-02  1.7128e-02  4.1979e-03  0:04:23 1926
    75  1.4930e-02  5.4843e-02  3.5270e-02  1.0983e+00  1.4923e-02  1.7560e-02  4.1830e-03  0:03:31 1925
    76  1.4069e-02  5.2904e-02  3.2992e-02  1.0904e+00  1.4055e-02  1.8023e-02  4.1724e-03  0:02:48 1924
    77  1.3130e-02  5.0632e-02  3.0912e-02  1.0898e+00  1.3110e-02  1.8494e-02  4.1613e-03  0:02:15 1923

  iter  continuity  x-velocity  y-velocity  z-velocity      energy           k       omega     time/iter
    78  1.2116e-02  4.8186e-02  2.8893e-02  1.0985e+00  1.2092e-02  1.8881e-02  4.1406e-03  0:08:12 1922
    79  1.1119e-02  4.5779e-02  2.7229e-02  1.1148e+00  1.1094e-02  1.9200e-02  4.1120e-03  0:06:33 1921
    80  1.0160e-02  4.3319e-02  2.5622e-02  1.1370e+00  1.0135e-02  1.9622e-02  4.0942e-03  0:05:15 1920
    81  9.3140e-03  4.0974e-02  2.4231e-02  1.1633e+00  9.2921e-03  2.0139e-02  4.0896e-03  0:04:12 1919
    82  8.6040e-03  3.8790e-02  2.3039e-02  1.1921e+00  8.5888e-03  2.0596e-02  4.0742e-03  0:03:21 1918
    83  8.1937e-03  3.7022e-02  2.2325e-02  1.2226e+00  8.1887e-03  2.1008e-02  4.0511e-03  0:02:41 1917
    84  8.1489e-03  3.5288e-02  2.1957e-02  1.2542e+00  8.1539e-03  2.1313e-02  4.0384e-03  0:02:09 1916
    85  8.3840e-03  3.3787e-02  2.1741e-02  1.2885e+00  8.3976e-03  2.1817e-02  4.0180e-03  0:08:06 1915
    86  8.8913e-03  3.2772e-02  2.1620e-02  1.3223e+00  8.9114e-03  2.2612e-02  3.9983e-03  0:06:28 1914
    87  9.6314e-03  3.2252e-02  2.1606e-02  1.3542e+00  9.6547e-03  2.3430e-02  3.9815e-03  0:05:11 1913
    88  1.0528e-02  3.2137e-02  2.1645e-02  1.3802e+00  1.0551e-02  2.4156e-02  3.9575e-03  0:04:08 1912

  iter  continuity  x-velocity  y-velocity  z-velocity      energy           k       omega     time/iter
    89  1.1506e-02  3.2259e-02  2.1703e-02  1.3941e+00  1.1526e-02  2.4616e-02  3.9207e-03  0:03:19 1911
    90  1.2509e-02  3.2620e-02  2.1727e-02  1.4020e+00  1.2523e-02  2.5025e-02  3.9017e-03  0:02:39 1910
    91  1.3483e-02  3.3133e-02  2.1673e-02  1.3914e+00  1.3488e-02  2.5443e-02  3.8965e-03  0:08:29 1909
    92  1.4376e-02  3.3734e-02  2.1561e-02  1.3734e+00  1.4372e-02  2.6106e-02  3.8811e-03  0:06:47 1908
    93  1.5191e-02  3.4301e-02  2.1360e-02  1.3486e+00  1.5177e-02  2.6812e-02  3.8586e-03  0:05:25 1907
    94  1.5869e-02  3.4674e-02  2.1027e-02  1.3175e+00  1.5842e-02  2.7275e-02  3.8352e-03  0:04:20 1906
    95  1.6392e-02  3.4848e-02  2.0604e-02  1.2853e+00  1.6354e-02  2.7906e-02  3.8238e-03  0:03:28 1905
    96  1.6759e-02  3.4869e-02  2.0113e-02  1.2553e+00  1.6708e-02  2.8481e-02  3.8015e-03  0:02:46 1904
    97  1.6953e-02  3.4737e-02  1.9346e-02  1.2290e+00  1.6890e-02  2.8789e-02  3.7890e-03  0:02:13 1903
    98  1.7002e-02  3.4396e-02  1.8612e-02  1.2065e+00  1.6926e-02  2.8799e-02  3.7858e-03  0:08:07 1902
    99  1.6898e-02  3.3857e-02  1.7843e-02  1.1875e+00  1.6811e-02  2.8870e-02  3.7896e-03  0:06:29 1901

  iter  continuity  x-velocity  y-velocity  z-velocity      energy           k       omega     time/iter
   100  1.6642e-02  3.3129e-02  1.7068e-02  1.1603e+00  1.6544e-02  2.8890e-02  3.7628e-03  0:05:11 1900
   101  1.6259e-02  3.2225e-02  1.6359e-02  1.1381e+00  1.6152e-02  2.8875e-02  3.7408e-03  0:04:09 1899
   102  1.5765e-02  3.1162e-02  1.5767e-02  1.1177e+00  1.5650e-02  2.9271e-02  3.6986e-03  0:03:19 1898
   103  1.5176e-02  2.9973e-02  1.5357e-02  1.1006e+00  1.5056e-02  2.9679e-02  3.6617e-03  0:02:39 1897
   104  1.4522e-02  2.8692e-02  1.5191e-02  1.0845e+00  1.4399e-02  2.9972e-02  3.6462e-03  0:08:26 1896
   105  1.3832e-02  2.7373e-02  1.5305e-02  1.0691e+00  1.3708e-02  2.9888e-02  3.6328e-03  0:06:45 1895
   106  1.3107e-02  2.6000e-02  1.5633e-02  1.0541e+00  1.2986e-02  2.9650e-02  3.5977e-03  0:05:24 1894
   107  1.2401e-02  2.4013e-02  1.6403e-02  1.0388e+00  1.2285e-02  2.9652e-02  3.5632e-03  0:04:19 1893
   108  1.1761e-02  2.2324e-02  1.7272e-02  1.0234e+00  1.1654e-02  2.9413e-02  3.5425e-03  0:03:27 1892
   109  1.1216e-02  2.0948e-02  1.8205e-02  1.0117e+00  1.1121e-02  2.9040e-02  3.5315e-03  0:02:45 1891
   110  1.0802e-02  1.9884e-02  1.9217e-02  9.9822e-01  1.0724e-02  2.8765e-02  3.4932e-03  0:02:12 1890

  iter  continuity  x-velocity  y-velocity  z-velocity      energy           k       omega     time/iter
   111  1.0550e-02  1.9152e-02  2.0281e-02  9.8165e-01  1.0489e-02  2.8478e-02  3.4604e-03  0:08:04 1889
   112  1.0479e-02  1.8802e-02  2.1352e-02  9.6676e-01  1.0437e-02  2.8506e-02  3.3949e-03  0:06:27 1888
   113  1.0593e-02  1.8847e-02  2.2384e-02  9.5350e-01  1.0568e-02  2.8727e-02  3.3273e-03  0:05:09 1887
   114  1.0881e-02  1.9346e-02  2.3346e-02  9.4481e-01  1.0871e-02  2.8597e-02  3.2691e-03  0:04:07 1886
   115  1.1319e-02  2.0275e-02  2.4213e-02  9.4000e-01  1.1319e-02  2.8031e-02  3.2067e-03  0:03:18 1885
   116  1.1877e-02  2.1577e-02  2.4968e-02  9.3926e-01  1.1882e-02  2.7342e-02  3.1389e-03  0:02:38 1884
   117  1.2519e-02  2.3176e-02  2.5598e-02  9.4286e-01  1.2525e-02  2.6746e-02  3.0860e-03  0:08:23 1883
   118  1.3214e-02  2.4992e-02  2.6096e-02  9.5412e-01  1.3218e-02  2.6019e-02  3.0309e-03  0:06:42 1882
   119  1.3938e-02  2.6962e-02  2.6421e-02  9.7295e-01  1.3935e-02  2.5255e-02  2.9846e-03  0:05:22 1881
   120  1.4669e-02  2.9161e-02  2.6468e-02  9.9702e-01  1.4657e-02  2.4605e-02  2.9577e-03  0:04:17 1880
   121  1.5400e-02  3.1308e-02  2.6558e-02  1.0243e+00  1.5376e-02  2.4093e-02  2.9125e-03  0:03:26 1879

  iter  continuity  x-velocity  y-velocity  z-velocity      energy           k       omega     time/iter
   122  1.6109e-02  3.3320e-02  2.6598e-02  1.0526e+00  1.6070e-02  2.3362e-02  2.8643e-03  0:02:44 1878
   123  1.6779e-02  3.5190e-02  2.6549e-02  1.0837e+00  1.6722e-02  2.2338e-02  2.8142e-03  0:08:27 1877
   124  1.7399e-02  3.6896e-02  2.6428e-02  1.1210e+00  1.7323e-02  2.1441e-02  2.7507e-03  0:06:45 1876
   125  1.7960e-02  3.8400e-02  2.6266e-02  1.1528e+00  1.7863e-02  2.0423e-02  2.6652e-03  0:05:24 1875
   126  1.8455e-02  3.9673e-02  2.6099e-02  1.1801e+00  1.8334e-02  1.9445e-02  2.5786e-03  0:04:19 1874
   127  1.8876e-02  4.0680e-02  2.5972e-02  1.2035e+00  1.8730e-02  1.8673e-02  2.4974e-03  0:03:27 1873
   128  1.9218e-02  4.1391e-02  2.5938e-02  1.2235e+00  1.9045e-02  1.8019e-02  2.4169e-03  0:02:46 1872
   129  1.9477e-02  4.1801e-02  2.6039e-02  1.2428e+00  1.9277e-02  1.7410e-02  2.3475e-03  0:08:27 1871
   130  1.9656e-02  4.1949e-02  2.6297e-02  1.2578e+00  1.9427e-02  1.6791e-02  2.2683e-03  0:06:45 1870
   131  1.9760e-02  4.2087e-02  2.6632e-02  1.2671e+00  1.9503e-02  1.6190e-02  2.2021e-03  0:05:24 1869
   132  1.9797e-02  4.1814e-02  2.7409e-02  1.2704e+00  1.9511e-02  1.5685e-02  2.1260e-03  0:04:19 1868

  iter  continuity  x-velocity  y-velocity  z-velocity      energy           k       omega     time/iter
   133  1.9755e-02  4.1217e-02  2.8389e-02  1.2673e+00  1.9443e-02  1.4915e-02  2.0527e-03  0:03:27 1867
   134  1.9638e-02  4.0652e-02  2.9418e-02  1.2587e+00  1.9300e-02  1.4366e-02  1.9858e-03  0:02:46 1866
   135  1.9424e-02  3.9900e-02  3.0356e-02  1.2426e+00  1.9062e-02  1.3942e-02  1.9130e-03  0:08:25 1865
   136  1.9156e-02  3.8760e-02  3.1706e-02  1.2233e+00  1.8773e-02  1.3527e-02  1.8290e-03  0:06:44 1864
   137  1.8807e-02  3.7401e-02  3.3088e-02  1.2003e+00  1.8404e-02  1.3272e-02  1.7702e-03  0:05:23 1863
   138  1.8380e-02  3.5958e-02  3.4473e-02  1.1788e+00  1.7962e-02  1.3072e-02  1.7227e-03  0:04:18 1862
   139  1.7878e-02  3.4499e-02  3.5836e-02  1.1585e+00  1.7448e-02  1.2821e-02  1.6964e-03  0:03:27 1861
   140  1.7304e-02  3.3170e-02  3.7085e-02  1.1426e+00  1.6866e-02  1.2705e-02  1.6709e-03  0:02:45 1860
   141  1.6654e-02  3.1997e-02  3.8232e-02  1.1247e+00  1.6212e-02  1.2776e-02  1.6581e-03  0:08:24 1859
   142  1.5933e-02  3.0829e-02  3.9319e-02  1.1050e+00  1.5492e-02  1.2750e-02  1.6537e-03  0:06:43 1858
   143  1.5188e-02  2.9841e-02  4.0290e-02  1.0809e+00  1.4753e-02  1.2489e-02  1.6704e-03  0:05:22 1857

  iter  continuity  x-velocity  y-velocity  z-velocity      energy           k       omega     time/iter
   144  1.4394e-02  2.9823e-02  4.0966e-02  1.0559e+00  1.3970e-02  1.2214e-02  1.7093e-03  0:04:18 1856
   145  1.3620e-02  3.0154e-02  4.1574e-02  1.0273e+00  1.3213e-02  1.2047e-02  1.7405e-03  0:03:26 1855
   146  1.2955e-02  3.0604e-02  4.2102e-02  9.9673e-01  1.2572e-02  1.2000e-02  1.7814e-03  0:02:45 1854
   147  1.2367e-02  3.1482e-02  4.2233e-02  9.6382e-01  1.2012e-02  1.2002e-02  1.8308e-03  0:02:12 1853
   148  1.1849e-02  3.2179e-02  4.2057e-02  9.2931e-01  1.1528e-02  1.2128e-02  1.8729e-03  0:07:56 1852
   149  1.1423e-02  3.2919e-02  4.1867e-02  8.9600e-01  1.1140e-02  1.2257e-02  1.9108e-03  0:06:20 1851
   150  1.1073e-02  3.3110e-02  4.1472e-02  8.5994e-01  1.0831e-02  1.2450e-02  1.9451e-03  0:05:04 1850
   151  1.0767e-02  3.3330e-02  4.0834e-02  8.2254e-01  1.0566e-02  1.2720e-02  1.9961e-03  0:04:03 1849
   152  1.0489e-02  3.3642e-02  4.0041e-02  7.8561e-01  1.0329e-02  1.3028e-02  2.0402e-03  0:03:14 1848
   153  1.0233e-02  3.4144e-02  3.9099e-02  7.4794e-01  1.0112e-02  1.3360e-02  2.0815e-03  0:02:35 1847
   154  9.8777e-03  3.4582e-02  3.8232e-02  7.0800e-01  9.7934e-03  1.3640e-02  2.1374e-03  0:02:04 1846

  iter  continuity  x-velocity  y-velocity  z-velocity      energy           k       omega     time/iter
   155  9.5795e-03  3.5111e-02  3.7129e-02  6.7162e-01  9.5276e-03  1.4051e-02  2.1770e-03  0:07:48 1845
   156  9.3115e-03  3.5429e-02  3.5798e-02  6.3658e-01  9.2872e-03  1.4541e-02  2.2481e-03  0:06:14 1844
   157  9.1387e-03  3.6059e-02  3.4305e-02  6.0300e-01  9.1384e-03  1.5034e-02  2.3092e-03  0:04:59 1843
   158  9.0253e-03  3.6514e-02  3.2693e-02  5.7228e-01  9.0446e-03  1.5503e-02  2.3497e-03  0:03:59 1842
   159  8.9588e-03  3.6618e-02  3.1060e-02  5.4550e-01  8.9934e-03  1.5867e-02  2.3731e-03  0:03:11 1841
   160  8.9438e-03  3.6342e-02  2.9420e-02  5.2166e-01  8.9891e-03  1.6054e-02  2.3905e-03  0:02:33 1840
   161  8.9712e-03  3.5784e-02  2.7783e-02  4.9935e-01  9.0230e-03  1.6040e-02  2.4231e-03  0:08:10 1839
   162  9.0241e-03  3.5031e-02  2.6161e-02  4.7908e-01  9.0785e-03  1.5961e-02  2.4377e-03  0:06:32 1838
   163  9.0913e-03  3.4000e-02  2.4641e-02  4.6265e-01  9.1443e-03  1.5869e-02  2.4348e-03  0:05:13 1837
   164  9.1599e-03  3.3010e-02  2.2992e-02  4.5096e-01  9.2089e-03  1.5529e-02  2.4254e-03  0:04:11 1836
   165  9.2284e-03  3.2035e-02  2.1315e-02  4.4453e-01  9.2718e-03  1.5072e-02  2.4113e-03  0:03:20 1835

  iter  continuity  x-velocity  y-velocity  z-velocity      energy           k       omega     time/iter
   166  9.2854e-03  3.1018e-02  1.9679e-02  4.4405e-01  9.3223e-03  1.4435e-02  2.3945e-03  0:02:40 1834
   167  9.3157e-03  2.9925e-02  1.8095e-02  4.5009e-01  9.3456e-03  1.3980e-02  2.3586e-03  0:08:15 1833
   168  9.3164e-03  2.8748e-02  1.6585e-02  4.6115e-01  9.3391e-03  1.3533e-02  2.3054e-03  0:06:36 1832
   169  9.2851e-03  2.7494e-02  1.5149e-02  4.7880e-01  9.3008e-03  1.2982e-02  2.2720e-03  0:05:16 1831
   170  9.2226e-03  2.6195e-02  1.3794e-02  5.0162e-01  9.2318e-03  1.2633e-02  2.2200e-03  0:04:13 1830
   171  9.1265e-03  2.4878e-02  1.2538e-02  5.2844e-01  9.1296e-03  1.2406e-02  2.1492e-03  0:03:22 1829
   172  8.9957e-03  2.3564e-02  1.1402e-02  5.5749e-01  8.9936e-03  1.2208e-02  2.0923e-03  0:02:42 1828
   173  8.8266e-03  2.2268e-02  1.0408e-02  5.8820e-01  8.8199e-03  1.1841e-02  2.0350e-03  0:08:15 1827
   174  8.6231e-03  2.0947e-02  9.6002e-03  6.1821e-01  8.6126e-03  1.1376e-02  1.9757e-03  0:06:36 1826
   175  8.3795e-03  1.9231e-02  9.0386e-03  6.4739e-01  8.3656e-03  1.1060e-02  1.9256e-03  0:05:16 1825
   176  8.1064e-03  1.7913e-02  8.4408e-03  6.7499e-01  8.0900e-03  1.0778e-02  1.8819e-03  0:04:13 1824

  iter  continuity  x-velocity  y-velocity  z-velocity      energy           k       omega     time/iter
   177  7.8070e-03  1.6793e-02  7.9686e-03  6.9946e-01  7.7893e-03  1.0417e-02  1.8342e-03  0:03:22 1823
   178  7.5027e-03  1.5840e-02  7.6939e-03  7.2066e-01  7.4845e-03  1.0105e-02  1.7777e-03  0:02:42 1822
   179  7.2331e-03  1.5032e-02  7.6073e-03  7.3945e-01  7.2152e-03  9.9958e-03  1.7406e-03  0:08:13 1821
   180  6.9904e-03  1.3845e-02  7.7471e-03  7.5463e-01  6.9725e-03  9.9697e-03  1.7000e-03  0:06:35 1820
   181  6.8922e-03  1.3188e-02  7.9794e-03  7.6581e-01  6.8751e-03  9.9423e-03  1.6844e-03  0:05:15 1819
   182  6.8998e-03  1.2920e-02  8.1938e-03  7.6434e-01  6.8833e-03  9.8136e-03  1.6599e-03  0:04:12 1818
   183  6.7869e-03  1.2396e-02  8.1619e-03  7.5583e-01  6.7721e-03  9.6894e-03  1.6193e-03  0:03:22 1817
   184  6.7113e-03  1.2081e-02  8.2358e-03  7.4093e-01  6.6987e-03  9.5335e-03  1.5846e-03  0:02:41 1816
   185  6.7138e-03  1.1935e-02  8.3319e-03  7.2037e-01  6.7032e-03  9.3160e-03  1.5568e-03  0:02:09 1815
   186  6.7779e-03  1.1906e-02  8.4144e-03  6.9466e-01  6.7690e-03  9.1094e-03  1.5316e-03  0:07:46 1814
   187  6.8757e-03  1.1959e-02  8.4667e-03  6.6450e-01  6.8682e-03  8.9791e-03  1.5055e-03  0:06:13 1813

  iter  continuity  x-velocity  y-velocity  z-velocity      energy           k       omega     time/iter
   188  6.9758e-03  1.2062e-02  8.4707e-03  6.3056e-01  6.9694e-03  8.8145e-03  1.4812e-03  0:04:58 1812
   189  7.0824e-03  1.2234e-02  8.4451e-03  5.9550e-01  7.0766e-03  8.6620e-03  1.4533e-03  0:03:58 1811
   190  7.1748e-03  1.2440e-02  8.3867e-03  5.6054e-01  7.1692e-03  8.5587e-03  1.4326e-03  0:03:10 1810
   191  7.2394e-03  1.2661e-02  8.2965e-03  5.2684e-01  7.2337e-03  8.5698e-03  1.4234e-03  0:02:32 1809
   192  7.2728e-03  1.2872e-02  8.1739e-03  4.9589e-01  7.2665e-03  8.6259e-03  1.4126e-03  0:08:03 1808
   193  7.2688e-03  1.3122e-02  7.9607e-03  4.6836e-01  7.2617e-03  8.6396e-03  1.3961e-03  0:06:26 1807
   194  7.2391e-03  1.3326e-02  7.7663e-03  4.4608e-01  7.2310e-03  8.6654e-03  1.3691e-03  0:05:09 1806
   195  7.1746e-03  1.3430e-02  7.6062e-03  4.3010e-01  7.1650e-03  8.6930e-03  1.3479e-03  0:04:07 1805
   196  7.0954e-03  1.3471e-02  7.4355e-03  4.1972e-01  7.0840e-03  8.7446e-03  1.3279e-03  0:03:18 1804
   197  6.9971e-03  1.3467e-02  7.2449e-03  4.1582e-01  6.9836e-03  8.8432e-03  1.3137e-03  0:02:38 1803
   198  6.8866e-03  1.3405e-02  7.0351e-03  4.1790e-01  6.8707e-03  8.8562e-03  1.3015e-03  0:02:06 1802

  iter  continuity  x-velocity  y-velocity  z-velocity      energy           k       omega     time/iter
   199  6.7649e-03  1.3259e-02  6.8289e-03  4.2466e-01  6.7464e-03  8.8513e-03  1.2906e-03  0:07:41 1801
   200  6.6448e-03  1.3082e-02  6.6337e-03  4.3468e-01  6.6237e-03  8.8947e-03  1.2826e-03  0:06:09 1800
   201  6.5287e-03  1.2882e-02  6.4372e-03  4.4713e-01  6.5049e-03  8.8809e-03  1.2746e-03  0:04:55 1799
   202  6.4193e-03  1.2633e-02  6.2584e-03  4.6017e-01  6.3929e-03  8.8484e-03  1.2729e-03  0:03:56 1798
   203  6.3123e-03  1.2409e-02  6.0685e-03  4.7333e-01  6.2834e-03  8.8344e-03  1.2758e-03  0:03:08 1797
   204  6.2037e-03  1.2138e-02  5.9302e-03  4.8515e-01  6.1726e-03  8.7592e-03  1.2728e-03  0:02:31 1796
   205  6.0897e-03  1.1796e-02  5.8449e-03  4.9476e-01  6.0566e-03  8.6230e-03  1.2800e-03  0:07:59 1795
   206  5.9690e-03  1.1416e-02  5.7914e-03  5.0150e-01  5.9342e-03  8.4672e-03  1.2892e-03  0:06:23 1794
   207  5.8358e-03  1.1017e-02  5.7640e-03  5.0580e-01  5.7995e-03  8.3191e-03  1.2970e-03  0:05:07 1793
   208  5.6837e-03  1.0615e-02  5.7607e-03  5.0820e-01  5.6462e-03  8.1330e-03  1.3076e-03  0:04:05 1792
   209  5.5104e-03  1.0215e-02  5.7809e-03  5.0828e-01  5.4720e-03  7.9183e-03  1.3117e-03  0:03:16 1791

  iter  continuity  x-velocity  y-velocity  z-velocity      energy           k       omega     time/iter
   210  5.3135e-03  9.8344e-03  5.8174e-03  5.0709e-01  5.2745e-03  7.7341e-03  1.3094e-03  0:02:37 1790
   211  5.0912e-03  9.5054e-03  5.8628e-03  5.0535e-01  5.0520e-03  7.5990e-03  1.3061e-03  0:08:03 1789
   212  4.8439e-03  9.1919e-03  5.9272e-03  5.0186e-01  4.8047e-03  7.4519e-03  1.3009e-03  0:06:26 1788
   213  4.5713e-03  8.8752e-03  6.0039e-03  4.9754e-01  4.5325e-03  7.3051e-03  1.3034e-03  0:05:09 1787
   214  4.2687e-03  8.5413e-03  6.0829e-03  4.9406e-01  4.2309e-03  7.1800e-03  1.3082e-03  0:04:07 1786
   215  3.9601e-03  8.2840e-03  6.1494e-03  4.8995e-01  3.9237e-03  7.0774e-03  1.3128e-03  0:03:17 1785
   216  3.6482e-03  8.0853e-03  6.2038e-03  4.8549e-01  3.6135e-03  7.0265e-03  1.3172e-03  0:02:38 1784
   217  3.3419e-03  7.9416e-03  6.2431e-03  4.8008e-01  3.3095e-03  6.9676e-03  1.3119e-03  0:08:03 1783
   218  3.0496e-03  7.8579e-03  6.2672e-03  4.7408e-01  3.0201e-03  6.9666e-03  1.3008e-03  0:06:26 1782
   219  2.7653e-03  7.8550e-03  6.2707e-03  4.6770e-01  2.7394e-03  7.0021e-03  1.2860e-03  0:05:09 1781
   220  2.5407e-03  7.9797e-03  6.2713e-03  4.6154e-01  2.5196e-03  7.0097e-03  1.2724e-03  0:04:07 1780

  iter  continuity  x-velocity  y-velocity  z-velocity      energy           k       omega     time/iter
   221  2.3755e-03  8.0945e-03  6.2561e-03  4.5221e-01  2.3600e-03  7.0455e-03  1.2587e-03  0:03:17 1779
   222  2.2801e-03  8.1948e-03  6.2253e-03  4.4194e-01  2.2705e-03  7.0760e-03  1.2424e-03  0:08:33 1778
   223  2.2887e-03  8.3472e-03  6.2091e-03  4.3101e-01  2.2849e-03  7.0841e-03  1.2383e-03  0:06:50 1777
   224  2.3902e-03  8.5658e-03  6.1611e-03  4.1663e-01  2.3911e-03  7.1152e-03  1.2205e-03  0:05:28 1776
   225  2.5645e-03  8.8032e-03  6.0889e-03  4.0084e-01  2.5686e-03  7.1612e-03  1.2116e-03  0:04:22 1775
   226  2.7909e-03  9.0394e-03  6.0047e-03  3.8098e-01  2.7967e-03  7.1845e-03  1.2097e-03  0:03:30 1774
   227  3.0527e-03  9.2617e-03  5.9148e-03  3.6219e-01  3.0589e-03  7.2106e-03  1.1996e-03  0:02:48 1773
   228  3.3315e-03  9.4617e-03  5.8217e-03  3.4503e-01  3.3372e-03  7.2336e-03  1.1850e-03  0:08:09 1772
   229  3.6138e-03  9.6377e-03  5.7255e-03  3.3251e-01  3.6183e-03  7.2576e-03  1.1829e-03  0:06:31 1771
   230  3.8902e-03  9.7919e-03  5.6260e-03  3.2353e-01  3.8930e-03  7.3114e-03  1.1806e-03  0:05:12 1770
   231  4.1551e-03  9.9201e-03  5.5186e-03  3.2034e-01  4.1558e-03  7.4303e-03  1.1887e-03  0:04:10 1769

  iter  continuity  x-velocity  y-velocity  z-velocity      energy           k       omega     time/iter
   232  4.4059e-03  1.0026e-02  5.4091e-03  3.2112e-01  4.4043e-03  7.5311e-03  1.1916e-03  0:03:20 1768
   233  4.6385e-03  1.0105e-02  5.2965e-03  3.2829e-01  4.6344e-03  7.6107e-03  1.1914e-03  0:02:40 1767
   234  4.8497e-03  1.0154e-02  5.1811e-03  3.3878e-01  4.8428e-03  7.6686e-03  1.1915e-03  0:02:08 1766
   235  5.0357e-03  1.0167e-02  5.0653e-03  3.5075e-01  5.0262e-03  7.7030e-03  1.1858e-03  0:07:35 1765
   236  5.1987e-03  1.0141e-02  4.9541e-03  3.6393e-01  5.1863e-03  7.7595e-03  1.1788e-03  0:06:04 1764
   237  5.3352e-03  1.0074e-02  4.8515e-03  3.7802e-01  5.3202e-03  7.8764e-03  1.1655e-03  0:04:51 1763
   238  5.4440e-03  9.9757e-03  4.7599e-03  3.9215e-01  5.4263e-03  8.0124e-03  1.1558e-03  0:03:53 1762
   239  5.5245e-03  9.8547e-03  4.6836e-03  4.0621e-01  5.5043e-03  8.1111e-03  1.1506e-03  0:03:06 1761
   240  5.5774e-03  9.7090e-03  4.6170e-03  4.1821e-01  5.5547e-03  8.1515e-03  1.1379e-03  0:02:29 1760
   241  5.6030e-03  9.5337e-03  4.5607e-03  4.2851e-01  5.5781e-03  8.1467e-03  1.1246e-03  0:07:51 1759
   242  5.6036e-03  9.3304e-03  4.5189e-03  4.3635e-01  5.5765e-03  8.1336e-03  1.1052e-03  0:06:16 1758

  iter  continuity  x-velocity  y-velocity  z-velocity      energy           k       omega     time/iter
   243  5.5823e-03  9.1122e-03  4.5031e-03  4.4169e-01  5.5532e-03  8.1499e-03  1.0812e-03  0:05:01 1757
   244  5.5431e-03  8.8917e-03  4.5159e-03  4.4378e-01  5.5121e-03  8.1565e-03  1.0572e-03  0:04:01 1756
   245  5.4889e-03  8.6704e-03  4.5476e-03  4.4258e-01  5.4563e-03  8.1233e-03  1.0325e-03  0:03:12 1755
   246  5.4232e-03  8.4520e-03  4.5988e-03  4.3882e-01  5.3892e-03  8.0990e-03  1.0077e-03  0:02:34 1754
   247  5.3457e-03  8.2269e-03  4.6612e-03  4.3251e-01  5.3104e-03  8.0668e-03  9.7545e-04  0:02:03 1753
   248  5.2220e-03  7.8387e-03  4.6340e-03  4.2267e-01  5.1855e-03  8.0530e-03  9.5624e-04  0:07:29 1752
   249  5.0885e-03  7.5172e-03  4.6673e-03  4.1020e-01  5.0513e-03  8.0151e-03  9.3453e-04  0:05:59 1751
   250  4.9489e-03  7.1808e-03  4.7430e-03  3.9556e-01  4.9112e-03  7.9554e-03  9.1516e-04  0:04:47 1750
   251  4.8056e-03  6.8665e-03  4.8284e-03  3.7960e-01  4.7678e-03  7.8679e-03  8.9630e-04  0:03:49 1749
   252  4.6653e-03  6.5965e-03  4.9123e-03  3.6389e-01  4.6276e-03  7.8078e-03  8.7558e-04  0:03:03 1748
   253  4.5309e-03  6.3735e-03  4.9919e-03  3.4873e-01  4.4935e-03  7.7425e-03  8.5555e-04  0:02:27 1747

  iter  continuity  x-velocity  y-velocity  z-velocity      energy           k       omega     time/iter
   254  4.4032e-03  6.1948e-03  5.0655e-03  3.3422e-01  4.3665e-03  7.6771e-03  8.3795e-04  0:01:57 1746
   255  4.2813e-03  6.0401e-03  5.1325e-03  3.2072e-01  4.2455e-03  7.6089e-03  8.2591e-04  0:07:23 1745
   256  4.1678e-03  5.9310e-03  5.1930e-03  3.0750e-01  4.1333e-03  7.5401e-03  8.0705e-04  0:05:54 1744
   257  4.0643e-03  5.8752e-03  5.2408e-03  2.9489e-01  4.0311e-03  7.4695e-03  7.9351e-04  0:04:43 1743
   258  3.9687e-03  5.8712e-03  5.2773e-03  2.8273e-01  3.9370e-03  7.3701e-03  7.7759e-04  0:03:46 1742
   259  3.8758e-03  5.9021e-03  5.3033e-03  2.7162e-01  3.8457e-03  7.2196e-03  7.6323e-04  0:03:01 1741
   260  3.7898e-03  5.9552e-03  5.3173e-03  2.6246e-01  3.7615e-03  7.0380e-03  7.5864e-04  0:02:25 1740
   261  3.7141e-03  6.0296e-03  5.3179e-03  2.5665e-01  3.6876e-03  6.8256e-03  7.5701e-04  0:07:43 1739
   262  3.6482e-03  6.1214e-03  5.3053e-03  2.5413e-01  3.6236e-03  6.6002e-03  7.5886e-04  0:06:11 1738
   263  3.5883e-03  6.2221e-03  5.2798e-03  2.5462e-01  3.5655e-03  6.3894e-03  7.5198e-04  0:04:56 1737
   264  3.5263e-03  6.3244e-03  5.2414e-03  2.5835e-01  3.5053e-03  6.1837e-03  7.4693e-04  0:03:57 1736

  iter  continuity  x-velocity  y-velocity  z-velocity      energy           k       omega     time/iter
   265  3.4691e-03  6.4226e-03  5.1910e-03  2.6450e-01  3.4498e-03  5.9698e-03  7.4615e-04  0:03:09 1735
   266  3.4212e-03  6.5124e-03  5.1275e-03  2.7252e-01  3.4034e-03  5.7735e-03  7.3990e-04  0:02:31 1734
   267  3.3835e-03  6.5895e-03  5.0513e-03  2.8156e-01  3.3672e-03  5.5948e-03  7.3851e-04  0:02:01 1733
   268  3.3569e-03  6.6509e-03  4.9638e-03  2.9145e-01  3.3419e-03  5.4305e-03  7.4403e-04  0:07:23 1732
   269  3.3554e-03  6.6944e-03  4.8661e-03  3.0186e-01  3.3417e-03  5.2591e-03  7.4911e-04  0:05:54 1731
   270  3.3464e-03  6.7184e-03  4.7576e-03  3.1225e-01  3.3337e-03  5.0877e-03  7.5034e-04  0:04:43 1730
   271  3.3585e-03  6.7224e-03  4.6405e-03  3.2278e-01  3.3467e-03  4.9156e-03  7.4903e-04  0:03:47 1729
   272  3.3532e-03  6.7042e-03  4.5169e-03  3.3323e-01  3.3422e-03  4.7662e-03  7.4821e-04  0:03:01 1728
   273  3.3752e-03  6.6627e-03  4.3858e-03  3.4383e-01  3.3649e-03  4.6356e-03  7.4924e-04  0:02:25 1727
   274  3.3736e-03  6.5972e-03  4.2475e-03  3.5442e-01  3.3638e-03  4.4955e-03  7.5089e-04  0:07:41 1726
   275  3.3664e-03  6.5092e-03  4.1028e-03  3.6471e-01  3.3569e-03  4.3853e-03  7.4573e-04  0:06:09 1725

  iter  continuity  x-velocity  y-velocity  z-velocity      energy           k       omega     time/iter
   276  3.3648e-03  6.3980e-03  3.9536e-03  3.7460e-01  3.3556e-03  4.2979e-03  7.4068e-04  0:04:55 1724
   277  3.3563e-03  6.2703e-03  3.7999e-03  3.8380e-01  3.3472e-03  4.2187e-03  7.3387e-04  0:03:56 1723
   278  3.3087e-03  6.1245e-03  3.6440e-03  3.9036e-01  3.2997e-03  4.1505e-03  7.3194e-04  0:03:08 1722
   279  3.2633e-03  5.9639e-03  3.4865e-03  3.9569e-01  3.2544e-03  4.0920e-03  7.2842e-04  0:02:31 1721
   280  3.2056e-03  5.7905e-03  3.3276e-03  4.0078e-01  3.1966e-03  4.0192e-03  7.2775e-04  0:02:00 1720
   281  3.1266e-03  5.6078e-03  3.1690e-03  4.0597e-01  3.1175e-03  3.9426e-03  7.2466e-04  0:07:20 1719
   282  3.0058e-03  5.4163e-03  3.0126e-03  4.1119e-01  2.9964e-03  3.8988e-03  7.2075e-04  0:05:52 1718
   283  2.8796e-03  5.2238e-03  2.8606e-03  4.1554e-01  2.8699e-03  3.8501e-03  7.0984e-04  0:04:41 1717
   284  2.7508e-03  5.0326e-03  2.7155e-03  4.1858e-01  2.7407e-03  3.7937e-03  6.9954e-04  0:03:45 1716
   285  2.6282e-03  4.8490e-03  2.5795e-03  4.2001e-01  2.6175e-03  3.7154e-03  6.8935e-04  0:03:00 1715
   286  2.5199e-03  4.6711e-03  2.4560e-03  4.2008e-01  2.5085e-03  3.6264e-03  6.8892e-04  0:02:24 1714

  iter  continuity  x-velocity  y-velocity  z-velocity      energy           k       omega     time/iter
   287  2.4288e-03  4.5098e-03  2.3478e-03  4.1901e-01  2.4166e-03  3.5667e-03  6.8746e-04  0:01:55 1713
   288  2.3565e-03  4.3678e-03  2.2569e-03  4.1658e-01  2.3433e-03  3.5155e-03  6.8077e-04  0:07:14 1712
   289  2.3045e-03  4.2520e-03  2.1853e-03  4.1311e-01  2.2902e-03  3.4822e-03  6.7324e-04  0:05:47 1711
   290  2.2730e-03  4.1636e-03  2.1342e-03  4.0858e-01  2.2573e-03  3.4417e-03  6.7249e-04  0:04:38 1710
   291  2.2615e-03  4.1039e-03  2.1036e-03  4.0299e-01  2.2445e-03  3.4256e-03  6.6913e-04  0:03:42 1709
   292  2.2687e-03  4.0739e-03  2.0929e-03  3.9617e-01  2.2502e-03  3.4324e-03  6.6296e-04  0:02:57 1708
   293  2.2927e-03  4.0762e-03  2.1006e-03  3.8823e-01  2.2726e-03  3.4340e-03  6.5445e-04  0:02:22 1707
   294  2.3323e-03  4.1068e-03  2.1243e-03  3.7895e-01  2.3104e-03  3.4329e-03  6.4749e-04  0:07:35 1706
   295  2.3842e-03  4.1595e-03  2.1601e-03  3.6829e-01  2.3605e-03  3.4267e-03  6.3984e-04  0:06:04 1705
   296  2.4484e-03  4.2293e-03  2.2072e-03  3.5622e-01  2.4229e-03  3.4375e-03  6.3628e-04  0:04:51 1704
   297  2.5229e-03  4.3077e-03  2.2624e-03  3.4341e-01  2.4954e-03  3.4641e-03  6.2781e-04  0:03:52 1703

  iter  continuity  x-velocity  y-velocity  z-velocity      energy           k       omega     time/iter
   298  2.6055e-03  4.3854e-03  2.3233e-03  3.2975e-01  2.5762e-03  3.5148e-03  6.1868e-04  0:03:06 1702
   299  2.6951e-03  4.4625e-03  2.3868e-03  3.1548e-01  2.6639e-03  3.5592e-03  6.0966e-04  0:02:29 1701
   300  2.7898e-03  4.5353e-03  2.4518e-03  3.0064e-01  2.7567e-03  3.6234e-03  6.0424e-04  0:01:59 1700
   301  2.8874e-03  4.6013e-03  2.5171e-03  2.8660e-01  2.8526e-03  3.6897e-03  5.9517e-04  0:07:15 1699
   302  2.9853e-03  4.6531e-03  2.5835e-03  2.7300e-01  2.9488e-03  3.7418e-03  5.8535e-04  0:05:48 1698
   303  3.0810e-03  4.6901e-03  2.6499e-03  2.6014e-01  3.0429e-03  3.8053e-03  5.7810e-04  0:04:38 1697
   304  3.1726e-03  4.7105e-03  2.7175e-03  2.4826e-01  3.1330e-03  3.8694e-03  5.7638e-04  0:03:42 1696
   305  3.2573e-03  4.7129e-03  2.7865e-03  2.3756e-01  3.2163e-03  3.9198e-03  5.8424e-04  0:02:58 1695
   306  3.3322e-03  4.6960e-03  2.8585e-03  2.2832e-01  3.2898e-03  3.9535e-03  5.8023e-04  0:02:22 1694
   307  3.3953e-03  4.6597e-03  2.9338e-03  2.1950e-01  3.3517e-03  3.9892e-03  5.6684e-04  0:07:32 1693
   308  3.4445e-03  4.6051e-03  3.0124e-03  2.1218e-01  3.3998e-03  3.9951e-03  5.5150e-04  0:06:02 1692

  iter  continuity  x-velocity  y-velocity  z-velocity      energy           k       omega     time/iter
   309  3.4773e-03  4.5341e-03  3.0940e-03  2.0611e-01  3.4317e-03  3.9853e-03  5.4969e-04  0:04:49 1691
   310  3.4926e-03  4.4460e-03  3.1794e-03  2.0106e-01  3.4462e-03  3.9714e-03  5.4831e-04  0:03:51 1690
   311  3.4893e-03  4.3442e-03  3.2697e-03  1.9736e-01  3.4423e-03  3.9589e-03  5.4483e-04  0:03:05 1689
   312  3.4665e-03  4.2293e-03  3.3657e-03  1.9499e-01  3.4190e-03  3.9567e-03  5.4437e-04  0:02:28 1688
   313  3.4236e-03  4.1067e-03  3.4666e-03  1.9408e-01  3.3757e-03  3.9524e-03  5.4769e-04  0:01:58 1687
   314  3.3593e-03  3.9824e-03  3.5703e-03  1.9423e-01  3.3113e-03  3.9311e-03  5.5075e-04  0:07:12 1686
   315  3.2728e-03  3.8555e-03  3.6666e-03  1.9549e-01  3.2249e-03  3.9021e-03  5.4442e-04  0:05:45 1685
   316  3.1668e-03  3.7478e-03  3.7831e-03  1.9729e-01  3.1191e-03  3.8704e-03  5.4012e-04  0:04:36 1684
   317  3.0399e-03  3.6607e-03  3.8999e-03  1.9998e-01  2.9927e-03  3.8425e-03  5.4015e-04  0:03:41 1683
   318  2.8936e-03  3.5970e-03  4.0146e-03  2.0333e-01  2.8472e-03  3.8109e-03  5.4460e-04  0:02:56 1682
   319  2.7298e-03  3.5631e-03  4.1267e-03  2.0719e-01  2.6844e-03  3.7867e-03  5.5051e-04  0:02:21 1681

  iter  continuity  x-velocity  y-velocity  z-velocity      energy           k       omega     time/iter
   320  2.5509e-03  3.5675e-03  4.2352e-03  2.1123e-01  2.5067e-03  3.7680e-03  5.5210e-04  0:07:29 1680
   321  2.3596e-03  3.6140e-03  4.3387e-03  2.1593e-01  2.3170e-03  3.7545e-03  5.5417e-04  0:05:59 1679
   322  2.1601e-03  3.7036e-03  4.4356e-03  2.2046e-01  2.1195e-03  3.7406e-03  5.5330e-04  0:04:47 1678
   323  1.9567e-03  3.8343e-03  4.5245e-03  2.2525e-01  1.9186e-03  3.7291e-03  5.5514e-04  0:03:49 1677
   324  1.7554e-03  4.0031e-03  4.6036e-03  2.3077e-01  1.7204e-03  3.7107e-03  5.6039e-04  0:03:03 1676
   325  1.5577e-03  4.2076e-03  4.6435e-03  2.3520e-01  1.5267e-03  3.6902e-03  5.6329e-04  0:02:27 1675
   326  1.3826e-03  4.4407e-03  4.6906e-03  2.3916e-01  1.3569e-03  3.6610e-03  5.6524e-04  0:07:32 1674
   327  1.2420e-03  4.6853e-03  4.7281e-03  2.4352e-01  1.2228e-03  3.6201e-03  5.6906e-04  0:06:01 1673
   328  1.1510e-03  4.9335e-03  4.7524e-03  2.4719e-01  1.1395e-03  3.5842e-03  5.7181e-04  0:04:49 1672
   329  1.1217e-03  5.1783e-03  4.7613e-03  2.5079e-01  1.1181e-03  3.5502e-03  5.7315e-04  0:03:51 1671
   330  1.1565e-03  5.4148e-03  4.7514e-03  2.5415e-01  1.1597e-03  3.5181e-03  5.7354e-04  0:03:05 1670

  iter  continuity  x-velocity  y-velocity  z-velocity      energy           k       omega     time/iter
   331  1.2463e-03  5.6386e-03  4.7213e-03  2.5648e-01  1.2540e-03  3.4941e-03  5.7583e-04  0:02:28 1669
   332  1.3751e-03  5.8443e-03  4.6708e-03  2.5818e-01  1.3852e-03  3.4862e-03  5.7662e-04  0:01:58 1668
   333  1.5279e-03  6.0265e-03  4.6007e-03  2.5907e-01  1.5387e-03  3.4762e-03  5.7737e-04  0:07:08 1667
   334  1.6915e-03  6.1817e-03  4.5120e-03  2.5899e-01  1.7017e-03  3.4714e-03  5.7667e-04  0:05:42 1666
   335  1.8567e-03  6.3072e-03  4.4059e-03  2.5793e-01  1.8656e-03  3.4742e-03  5.7059e-04  0:04:33 1665
   336  2.0165e-03  6.4002e-03  4.2839e-03  2.5609e-01  2.0237e-03  3.4890e-03  5.6452e-04  0:03:39 1664
   337  2.1659e-03  6.4589e-03  4.1481e-03  2.5380e-01  2.1710e-03  3.4937e-03  5.6045e-04  0:02:55 1663
   338  2.3014e-03  6.4827e-03  4.0007e-03  2.5161e-01  2.3042e-03  3.4884e-03  5.5459e-04  0:02:20 1662
   339  2.4191e-03  6.4665e-03  3.8423e-03  2.4935e-01  2.4196e-03  3.4909e-03  5.5017e-04  0:07:24 1661
   340  2.5198e-03  6.4191e-03  3.6938e-03  2.4742e-01  2.5179e-03  3.5198e-03  5.4495e-04  0:05:55 1660
   341  2.6008e-03  6.3402e-03  3.5400e-03  2.4519e-01  2.5965e-03  3.5606e-03  5.3539e-04  0:04:44 1659

  iter  continuity  x-velocity  y-velocity  z-velocity      energy           k       omega     time/iter
   342  2.6592e-03  6.2787e-03  3.3514e-03  2.4154e-01  2.6527e-03  3.5867e-03  5.2375e-04  0:03:47 1658
   343  2.6964e-03  6.1611e-03  3.1912e-03  2.3772e-01  2.6878e-03  3.5827e-03  5.1413e-04  0:08:33 1657
   344  2.7121e-03  5.9968e-03  3.0515e-03  2.3434e-01  2.7014e-03  3.5783e-03  5.0508e-04  0:06:50 1656
   345  2.7060e-03  5.8008e-03  2.9271e-03  2.3224e-01  2.6934e-03  3.5818e-03  4.9962e-04  0:05:28 1655
   346  2.6783e-03  5.5832e-03  2.8191e-03  2.3190e-01  2.6639e-03  3.5801e-03  4.9336e-04  0:04:22 1654
   347  2.6293e-03  5.3500e-03  2.7329e-03  2.3331e-01  2.6133e-03  3.5655e-03  4.8483e-04  0:03:30 1653
   348  2.5599e-03  5.1145e-03  2.6692e-03  2.3669e-01  2.5425e-03  3.5389e-03  4.7121e-04  0:02:48 1652
   349  2.4711e-03  4.8861e-03  2.6331e-03  2.4232e-01  2.4525e-03  3.5060e-03  4.6016e-04  0:02:14 1651
   350  2.3656e-03  4.7076e-03  2.6250e-03  2.5011e-01  2.3460e-03  3.4825e-03  4.5190e-04  0:07:17 1650
   351  2.2451e-03  4.4932e-03  2.6635e-03  2.5845e-01  2.2248e-03  3.4538e-03  4.4418e-04  0:05:49 1649
   352  2.1111e-03  4.2788e-03  2.7224e-03  2.6683e-01  2.0902e-03  3.4111e-03  4.3824e-04  0:04:39 1648

  iter  continuity  x-velocity  y-velocity  z-velocity      energy           k       omega     time/iter
   353  1.9659e-03  4.0818e-03  2.7926e-03  2.7276e-01  1.9445e-03  3.3580e-03  4.3314e-04  0:03:43 1647
   354  1.8118e-03  3.9125e-03  2.8698e-03  2.8014e-01  1.7902e-03  3.3053e-03  4.2116e-04  0:02:59 1646
   355  1.6524e-03  3.7778e-03  2.9505e-03  2.8839e-01  1.6308e-03  3.2489e-03  4.1025e-04  0:02:23 1645
   356  1.4916e-03  3.6814e-03  3.0312e-03  2.9699e-01  1.4703e-03  3.1749e-03  4.0427e-04  0:07:23 1644
   357  1.3314e-03  3.6232e-03  3.1056e-03  3.0850e-01  1.3106e-03  3.0827e-03  3.9700e-04  0:05:54 1643
   358  1.1783e-03  3.6182e-03  3.1730e-03  3.1989e-01  1.1584e-03  2.9969e-03  3.9204e-04  0:04:43 1642
   359  1.0443e-03  3.6497e-03  3.2322e-03  3.2820e-01  1.0260e-03  2.9092e-03  3.8615e-04  0:03:46 1641
   360  9.3373e-04  3.6992e-03  3.2793e-03  3.3591e-01  9.1777e-04  2.8068e-03  3.8130e-04  0:03:01 1640
   361  8.5502e-04  3.7659e-03  3.3119e-03  3.4462e-01  8.4209e-04  2.7020e-03  3.7577e-04  0:02:25 1639
   362  8.1593e-04  3.8466e-03  3.3285e-03  3.5255e-01  8.0662e-04  2.6110e-03  3.7237e-04  0:07:23 1638
   363  8.1821e-04  3.9351e-03  3.3283e-03  3.5899e-01  8.1259e-04  2.5272e-03  3.7101e-04  0:05:54 1637

  iter  continuity  x-velocity  y-velocity  z-velocity      energy           k       omega     time/iter
   364  8.5582e-04  4.0236e-03  3.3115e-03  3.6408e-01  8.5338e-04  2.4497e-03  3.6516e-04  0:04:43 1636
   365  9.1845e-04  4.1045e-03  3.2777e-03  3.6972e-01  9.1834e-04  2.3818e-03  3.6306e-04  0:03:47 1635
   366  9.9524e-04  4.1727e-03  3.2271e-03  3.7521e-01  9.9662e-04  2.3178e-03  3.5894e-04  0:03:01 1634
   367  1.0772e-03  4.2236e-03  3.1601e-03  3.8183e-01  1.0794e-03  2.2578e-03  3.5592e-04  0:02:25 1633
   368  1.1580e-03  4.2550e-03  3.0774e-03  3.8979e-01  1.1605e-03  2.2273e-03  3.5031e-04  0:01:56 1632
   369  1.2330e-03  4.2649e-03  2.9807e-03  3.9955e-01  1.2356e-03  2.2004e-03  3.4510e-04  0:06:59 1631
   370  1.2994e-03  4.2520e-03  2.8713e-03  4.1131e-01  1.3017e-03  2.1705e-03  3.4055e-04  0:05:35 1630
   371  1.3551e-03  4.2162e-03  2.7510e-03  4.2164e-01  1.3570e-03  2.1249e-03  3.3558e-04  0:04:28 1629
   372  1.3986e-03  4.1583e-03  2.6218e-03  4.2979e-01  1.4001e-03  2.0666e-03  3.3413e-04  0:03:34 1628
   373  1.4294e-03  4.0788e-03  2.4864e-03  4.3633e-01  1.4304e-03  2.0024e-03  3.3424e-04  0:02:51 1627
   374  1.4470e-03  3.9790e-03  2.3469e-03  4.3998e-01  1.4475e-03  1.9580e-03  3.3370e-04  0:02:17 1626

  iter  continuity  x-velocity  y-velocity  z-velocity      energy           k       omega     time/iter
   375  1.4515e-03  3.8614e-03  2.2060e-03  4.4205e-01  1.4515e-03  1.9344e-03  3.3265e-04  0:07:14 1625
   376  1.4432e-03  3.7285e-03  2.0661e-03  4.4426e-01  1.4427e-03  1.9013e-03  3.3293e-04  0:05:47 1624
   377  1.4225e-03  3.5829e-03  1.9303e-03  4.4544e-01  1.4216e-03  1.8650e-03  3.3305e-04  0:04:38 1623
   378  1.3899e-03  3.4274e-03  1.8014e-03  4.4417e-01  1.3887e-03  1.8344e-03  3.3400e-04  0:03:42 1622
   379  1.3463e-03  3.2659e-03  1.6818e-03  4.4165e-01  1.3449e-03  1.8046e-03  3.3422e-04  0:02:57 1621
   380  1.2934e-03  3.1020e-03  1.5744e-03  4.4036e-01  1.2919e-03  1.7856e-03  3.3301e-04  0:02:22 1620
   381  1.2327e-03  2.9416e-03  1.4808e-03  4.4021e-01  1.2310e-03  1.7643e-03  3.3444e-04  0:07:17 1619
   382  1.1659e-03  2.7880e-03  1.4034e-03  4.4424e-01  1.1643e-03  1.7536e-03  3.3413e-04  0:05:50 1618
   383  1.0952e-03  2.6467e-03  1.3425e-03  4.5421e-01  1.0937e-03  1.7485e-03  3.3730e-04  0:04:39 1617
   384  1.0232e-03  2.5228e-03  1.2984e-03  4.7286e-01  1.0218e-03  1.7473e-03  3.3970e-04  0:03:43 1616
   385  9.5318e-04  2.4202e-03  1.2708e-03  5.0113e-01  9.5199e-04  1.7391e-03  3.3774e-04  0:02:59 1615

  iter  continuity  x-velocity  y-velocity  z-velocity      energy           k       omega     time/iter
   386  8.8871e-04  2.3405e-03  1.2577e-03  5.3865e-01  8.8767e-04  1.7329e-03  3.3584e-04  0:02:23 1614
   387  8.3375e-04  2.2866e-03  1.2558e-03  5.8414e-01  8.3279e-04  1.7259e-03  3.3018e-04  0:01:54 1613
   388  7.9261e-04  2.2594e-03  1.2624e-03  6.3564e-01  7.9160e-04  1.7284e-03  3.2247e-04  0:06:54 1612
   389  7.6940e-04  2.2569e-03  1.2746e-03  6.9216e-01  7.6816e-04  1.7345e-03  3.1749e-04  0:05:31 1611
   390  7.6640e-04  2.2761e-03  1.2898e-03  7.5189e-01  7.6472e-04  1.7351e-03  3.1386e-04  0:04:24 1610
   391  7.8401e-04  2.3139e-03  1.3060e-03  8.1259e-01  7.8170e-04  1.7268e-03  3.1191e-04  0:03:31 1609
   392  8.2049e-04  2.3652e-03  1.3214e-03  8.7319e-01  8.1739e-04  1.7082e-03  3.0842e-04  0:02:49 1608
   393  8.7195e-04  2.4249e-03  1.3350e-03  9.3292e-01  8.6796e-04  1.6948e-03  3.0636e-04  0:02:15 1607
   394  9.3430e-04  2.4876e-03  1.3463e-03  9.9138e-01  9.2936e-04  1.6914e-03  3.0162e-04  0:01:48 1606
   395  1.0033e-03  2.5497e-03  1.3551e-03  1.0470e+00  9.9741e-04  1.6887e-03  2.9557e-04  0:06:47 1605
   396  1.0753e-03  2.6076e-03  1.3615e-03  1.0983e+00  1.0685e-03  1.6774e-03  2.9165e-04  0:05:26 1604

  iter  continuity  x-velocity  y-velocity  z-velocity      energy           k       omega     time/iter
   397  1.1474e-03  2.6578e-03  1.3661e-03  1.1437e+00  1.1397e-03  1.6771e-03  2.8775e-04  0:04:20 1603
   398  1.2173e-03  2.6985e-03  1.3685e-03  1.1823e+00  1.2087e-03  1.6798e-03  2.8757e-04  0:03:28 1602
   399  1.2830e-03  2.7263e-03  1.3700e-03  1.2135e+00  1.2736e-03  1.6771e-03  2.8731e-04  0:02:46 1601
   400  1.3433e-03  2.7414e-03  1.3718e-03  1.2369e+00  1.3331e-03  1.6756e-03  2.8850e-04  0:02:13 1600
   401  1.3966e-03  2.7422e-03  1.3749e-03  1.2524e+00  1.3857e-03  1.6896e-03  2.8997e-04  0:07:06 1599
   402  1.4417e-03  2.7291e-03  1.3798e-03  1.2594e+00  1.4302e-03  1.7230e-03  2.8868e-04  0:05:41 1598
   403  1.4779e-03  2.7020e-03  1.3874e-03  1.2586e+00  1.4658e-03  1.7337e-03  2.8935e-04  0:04:32 1597
   404  1.5045e-03  2.6610e-03  1.3971e-03  1.2501e+00  1.4921e-03  1.7335e-03  2.8834e-04  0:03:38 1596
   405  1.5215e-03  2.6071e-03  1.4101e-03  1.2346e+00  1.5086e-03  1.7344e-03  2.8859e-04  0:02:54 1595
   406  1.5285e-03  2.5413e-03  1.4269e-03  1.2127e+00  1.5154e-03  1.7443e-03  2.8886e-04  0:02:19 1594
   407  1.5257e-03  2.4643e-03  1.4477e-03  1.1853e+00  1.5125e-03  1.7694e-03  2.9109e-04  0:01:51 1593

  iter  continuity  x-velocity  y-velocity  z-velocity      energy           k       omega     time/iter
   408  1.5132e-03  2.3777e-03  1.4721e-03  1.1534e+00  1.4999e-03  1.7845e-03  2.9147e-04  0:06:47 1592
   409  1.4910e-03  2.2859e-03  1.4995e-03  1.1191e+00  1.4779e-03  1.7908e-03  2.9154e-04  0:05:26 1591
   410  1.4597e-03  2.1912e-03  1.5292e-03  1.0829e+00  1.4468e-03  1.7914e-03  2.8834e-04  0:04:20 1590
   411  1.4200e-03  2.0977e-03  1.5605e-03  1.0487e+00  1.4074e-03  1.7948e-03  2.8874e-04  0:03:28 1589
   412  1.3726e-03  2.0089e-03  1.5925e-03  1.0210e+00  1.3605e-03  1.8057e-03  2.8870e-04  0:02:46 1588
   413  1.3186e-03  1.9286e-03  1.6244e-03  1.0059e+00  1.3071e-03  1.8137e-03  2.8902e-04  0:02:13 1587
   414  1.2592e-03  1.8612e-03  1.6554e-03  1.0033e+00  1.2484e-03  1.8184e-03  2.8983e-04  0:01:46 1586
   415  1.1956e-03  1.8103e-03  1.6845e-03  1.0153e+00  1.1857e-03  1.8149e-03  2.9089e-04  0:06:42 1585
   416  1.1295e-03  1.7793e-03  1.7111e-03  1.0425e+00  1.1206e-03  1.8101e-03  2.9265e-04  0:05:21 1584
   417  1.0628e-03  1.7698e-03  1.7344e-03  1.0833e+00  1.0550e-03  1.8030e-03  2.9566e-04  0:04:17 1583
   418  9.9763e-04  1.7824e-03  1.7537e-03  1.1407e+00  9.9117e-04  1.7987e-03  2.9734e-04  0:03:25 1582

  iter  continuity  x-velocity  y-velocity  z-velocity      energy           k       omega     time/iter
   419  9.3634e-04  1.8160e-03  1.7681e-03  1.2123e+00  9.3130e-04  1.7955e-03  2.9898e-04  0:02:44 1581
   420  8.8142e-04  1.8674e-03  1.7775e-03  1.2939e+00  8.7791e-04  1.7898e-03  3.0181e-04  0:02:11 1580
   421  8.3545e-04  1.9329e-03  1.7815e-03  1.3812e+00  8.3347e-04  1.7833e-03  3.0401e-04  0:07:01 1579
   422  8.0083e-04  2.0081e-03  1.7798e-03  1.4726e+00  8.0032e-04  1.7816e-03  3.0529e-04  0:05:36 1578
   423  7.7944e-04  2.0885e-03  1.7723e-03  1.5655e+00  7.8021e-04  1.7850e-03  3.0644e-04  0:04:29 1577
   424  7.7213e-04  2.1701e-03  1.7588e-03  1.6595e+00  7.7388e-04  1.7878e-03  3.0923e-04  0:03:35 1576
   425  7.7892e-04  2.2497e-03  1.7395e-03  1.7497e+00  7.8128e-04  1.7920e-03  3.1061e-04  0:08:07 1575
   426  7.9837e-04  2.3242e-03  1.7145e-03  1.8362e+00  8.0095e-04  1.7795e-03  3.0981e-04  0:06:29 1574
   427  8.2842e-04  2.3918e-03  1.6840e-03  1.9162e+00  8.3084e-04  1.7608e-03  3.0692e-04  0:05:11 1573
   428  8.6623e-04  2.4502e-03  1.6483e-03  1.9869e+00  8.6818e-04  1.7486e-03  3.0384e-04  0:04:09 1572
   429  9.0923e-04  2.4985e-03  1.6080e-03  2.0453e+00  9.1048e-04  1.7499e-03  3.0212e-04  0:03:19 1571

  iter  continuity  x-velocity  y-velocity  z-velocity      energy           k       omega     time/iter
   430  9.5486e-04  2.5352e-03  1.5641e-03  2.0908e+00  9.5525e-04  1.7438e-03  2.9991e-04  0:02:39 1570
   431  1.0008e-03  2.5594e-03  1.5173e-03  2.1204e+00  1.0003e-03  1.7331e-03  2.9598e-04  0:07:21 1569
   432  1.0454e-03  2.5709e-03  1.4690e-03  2.1338e+00  1.0438e-03  1.7210e-03  2.9105e-04  0:05:53 1568
   433  1.0868e-03  2.5696e-03  1.4200e-03  2.1327e+00  1.0842e-03  1.7001e-03  2.8721e-04  0:04:42 1567
   434  1.1240e-03  2.5552e-03  1.3715e-03  2.1158e+00  1.1203e-03  1.6824e-03  2.8227e-04  0:03:45 1566
   435  1.1558e-03  2.5283e-03  1.3248e-03  2.0841e+00  1.1511e-03  1.6631e-03  2.7819e-04  0:03:00 1565
   436  1.1816e-03  2.4898e-03  1.2814e-03  2.0410e+00  1.1758e-03  1.6459e-03  2.7504e-04  0:02:24 1564
   437  1.2006e-03  2.4405e-03  1.2428e-03  1.9897e+00  1.1939e-03  1.6295e-03  2.6788e-04  0:01:55 1563
   438  1.2125e-03  2.3812e-03  1.2102e-03  1.9314e+00  1.2049e-03  1.6122e-03  2.6459e-04  0:06:44 1562
   439  1.2171e-03  2.3134e-03  1.1848e-03  1.8648e+00  1.2086e-03  1.5906e-03  2.6118e-04  0:05:23 1561
   440  1.2142e-03  2.2379e-03  1.1676e-03  1.7964e+00  1.2049e-03  1.5648e-03  2.5692e-04  0:04:19 1560

  iter  continuity  x-velocity  y-velocity  z-velocity      energy           k       omega     time/iter
   441  1.2036e-03  2.1565e-03  1.1593e-03  1.7275e+00  1.1937e-03  1.5416e-03  2.5125e-04  0:03:27 1559
   442  1.1858e-03  2.0712e-03  1.1598e-03  1.6637e+00  1.1752e-03  1.5206e-03  2.4649e-04  0:02:45 1558
   443  1.1607e-03  1.9835e-03  1.1687e-03  1.6033e+00  1.1495e-03  1.5009e-03  2.4298e-04  0:02:12 1557
   444  1.1281e-03  1.8960e-03  1.1851e-03  1.5436e+00  1.1165e-03  1.4839e-03  2.3957e-04  0:06:57 1556
   445  1.0889e-03  1.8110e-03  1.2078e-03  1.4850e+00  1.0769e-03  1.4664e-03  2.3615e-04  0:05:33 1555
   446  1.0440e-03  1.7312e-03  1.2355e-03  1.4296e+00  1.0316e-03  1.4463e-03  2.3255e-04  0:04:26 1554
   447  9.9380e-04  1.6582e-03  1.2669e-03  1.3759e+00  9.8119e-04  1.4264e-03  2.2958e-04  0:03:33 1553
   448  9.3855e-04  1.5945e-03  1.3007e-03  1.3217e+00  9.2576e-04  1.4074e-03  2.2565e-04  0:02:50 1552
   449  8.7903e-04  1.5420e-03  1.3347e-03  1.2676e+00  8.6612e-04  1.3850e-03  2.1828e-04  0:02:16 1551
   450  8.1644e-04  1.5030e-03  1.3681e-03  1.2142e+00  8.0350e-04  1.3603e-03  2.1470e-04  0:01:49 1550
   451  7.5159e-04  1.4787e-03  1.3995e-03  1.1600e+00  7.3869e-04  1.3365e-03  2.1196e-04  0:06:37 1549

  iter  continuity  x-velocity  y-velocity  z-velocity      energy           k       omega     time/iter
   452  6.8527e-04  1.4691e-03  1.4281e-03  1.1059e+00  6.7247e-04  1.3145e-03  2.0957e-04  0:05:17 1548
   453  6.1860e-04  1.4738e-03  1.4530e-03  1.0532e+00  6.0600e-04  1.2969e-03  2.0682e-04  0:04:14 1547
   454  5.5308e-04  1.4912e-03  1.4736e-03  1.0032e+00  5.4075e-04  1.2791e-03  2.0324e-04  0:03:23 1546
   455  4.9034e-04  1.5192e-03  1.4892e-03  9.5566e-01  4.7842e-04  1.2558e-03  1.9981e-04  0:02:42 1545
   456  4.3250e-04  1.5555e-03  1.4995e-03  9.1185e-01  4.2117e-04  1.2311e-03  1.9693e-04  0:02:10 1544
   457  3.8213e-04  1.5974e-03  1.5042e-03  8.7088e-01  3.7166e-04  1.2097e-03  1.9329e-04  0:01:44 1543
   458  3.4212e-04  1.6415e-03  1.5030e-03  8.3313e-01  3.3285e-04  1.1864e-03  1.8865e-04  0:06:31 1542
   459  3.1582e-04  1.6847e-03  1.4961e-03  7.9960e-01  3.0817e-04  1.1583e-03  1.8461e-04  0:05:13 1541
   460  3.0649e-04  1.7290e-03  1.4831e-03  7.7162e-01  3.0077e-04  1.1200e-03  1.8120e-04  0:04:10 1540
   461  3.1266e-04  1.7708e-03  1.4645e-03  7.4914e-01  3.0888e-04  1.0826e-03  1.7874e-04  0:03:20 1539
   462  3.3150e-04  1.8081e-03  1.4405e-03  7.3211e-01  3.2937e-04  1.0527e-03  1.7640e-04  0:02:40 1538

  iter  continuity  x-velocity  y-velocity  z-velocity      energy           k       omega     time/iter
   463  3.5919e-04  1.8398e-03  1.4113e-03  7.2056e-01  3.5828e-04  1.0267e-03  1.7429e-04  0:02:08 1537
   464  3.9222e-04  1.8647e-03  1.3772e-03  7.1379e-01  3.9212e-04  1.0039e-03  1.7205e-04  0:01:42 1536
   465  4.2671e-04  1.8817e-03  1.3388e-03  7.1134e-01  4.2710e-04  9.9036e-04  1.6938e-04  0:06:29 1535
   466  4.6071e-04  1.8915e-03  1.2957e-03  7.1265e-01  4.6137e-04  9.7441e-04  1.6816e-04  0:05:11 1534
   467  4.9242e-04  1.8918e-03  1.2490e-03  7.1670e-01  4.9318e-04  9.5905e-04  1.6627e-04  0:04:08 1533
   468  5.2157e-04  1.8830e-03  1.1991e-03  7.2336e-01  5.2231e-04  9.5011e-04  1.6484e-04  0:03:19 1532
   469  5.4664e-04  1.8651e-03  1.1465e-03  7.3183e-01  5.4728e-04  9.4456e-04  1.6438e-04  0:02:39 1531
   470  5.6777e-04  1.8387e-03  1.0917e-03  7.4182e-01  5.6828e-04  9.3210e-04  1.6408e-04  0:02:07 1530
   471  5.8459e-04  1.8042e-03  1.0354e-03  7.5262e-01  5.8494e-04  9.2280e-04  1.6353e-04  0:01:41 1529
   472  5.9648e-04  1.7620e-03  9.7850e-04  7.6321e-01  5.9666e-04  9.1758e-04  1.6218e-04  0:06:27 1528
   473  6.0338e-04  1.7128e-03  9.2164e-04  7.7339e-01  6.0338e-04  9.1169e-04  1.5972e-04  0:05:09 1527

  iter  continuity  x-velocity  y-velocity  z-velocity      energy           k       omega     time/iter
   474  6.0527e-04  1.6576e-03  8.6567e-04  7.8273e-01  6.0512e-04  9.0646e-04  1.5655e-04  0:04:07 1526
   475  6.0226e-04  1.5973e-03  8.1134e-04  7.9102e-01  6.0196e-04  9.0420e-04  1.5615e-04  0:03:18 1525
   476  5.9450e-04  1.5334e-03  7.5948e-04  7.9839e-01  5.9407e-04  8.9812e-04  1.5513e-04  0:02:38 1524
   477  5.8224e-04  1.4669e-03  7.1087e-04  8.0440e-01  5.8170e-04  8.9338e-04  1.5414e-04  0:02:06 1523
   478  5.6578e-04  1.3993e-03  6.6627e-04  8.0843e-01  5.6516e-04  8.8899e-04  1.5322e-04  0:01:41 1522
   479  5.4485e-04  1.3321e-03  6.2395e-04  8.1042e-01  5.4417e-04  8.9500e-04  1.5325e-04  0:06:25 1521
   480  5.2163e-04  1.2688e-03  5.8830e-04  8.1006e-01  5.2092e-04  8.9988e-04  1.5286e-04  0:05:08 1520
   481  4.9631e-04  1.2073e-03  5.5955e-04  8.0720e-01  4.9557e-04  8.9993e-04  1.5228e-04  0:04:06 1519
   482  4.6931e-04  1.1494e-03  5.3726e-04  8.0167e-01  4.6855e-04  8.9866e-04  1.5183e-04  0:03:17 1518
   483  4.4199e-04  1.0980e-03  5.2084e-04  7.9426e-01  4.4121e-04  9.0297e-04  1.5171e-04  0:02:37 1517
   484  4.1609e-04  1.0548e-03  5.0978e-04  7.8443e-01  4.1528e-04  9.0233e-04  1.5004e-04  0:02:06 1516

  iter  continuity  x-velocity  y-velocity  z-velocity      energy           k       omega     time/iter
   485  3.9336e-04  1.0208e-03  5.0345e-04  7.7178e-01  3.9252e-04  8.9725e-04  1.4834e-04  0:01:41 1515
   486  3.7525e-04  9.9644e-04  5.0110e-04  7.5606e-01  3.7432e-04  8.9636e-04  1.4617e-04  0:06:23 1514
   487  3.6322e-04  9.8121e-04  5.0179e-04  7.3945e-01  3.6217e-04  8.9752e-04  1.4520e-04  0:05:06 1513
   488  3.5865e-04  9.7431e-04  5.0458e-04  7.2339e-01  3.5742e-04  9.0101e-04  1.4504e-04  0:04:05 1512
   489  3.6231e-04  9.7464e-04  5.0858e-04  7.0661e-01  3.6084e-04  9.0415e-04  1.4461e-04  0:03:16 1511
   490  3.7385e-04  9.8063e-04  5.1311e-04  6.8907e-01  3.7210e-04  9.0426e-04  1.4323e-04  0:02:37 1510
   491  3.9210e-04  9.9082e-04  5.1761e-04  6.7135e-01  3.9003e-04  8.9859e-04  1.4121e-04  0:02:05 1509
   492  4.1545e-04  1.0034e-03  5.2170e-04  6.5486e-01  4.1304e-04  8.9265e-04  1.3886e-04  0:01:40 1508
   493  4.4229e-04  1.0167e-03  5.2517e-04  6.3552e-01  4.3952e-04  8.8490e-04  1.3720e-04  0:06:21 1507
   494  4.7113e-04  1.0293e-03  5.2793e-04  6.1405e-01  4.6800e-04  8.7877e-04  1.3610e-04  0:05:05 1506
   495  5.0062e-04  1.0401e-03  5.3004e-04  5.9468e-01  4.9712e-04  8.7398e-04  1.3493e-04  0:04:04 1505

  iter  continuity  x-velocity  y-velocity  z-velocity      energy           k       omega     time/iter
   496  5.2974e-04  1.0482e-03  5.3166e-04  5.7560e-01  5.2586e-04  8.6996e-04  1.3326e-04  0:03:15 1504
   497  5.5786e-04  1.0528e-03  5.3301e-04  5.5678e-01  5.5360e-04  8.6469e-04  1.3149e-04  0:02:36 1503
   498  5.8428e-04  1.0535e-03  5.3437e-04  5.3883e-01  5.7967e-04  8.5455e-04  1.2987e-04  0:02:05 1502
   499  6.0835e-04  1.0500e-03  5.3618e-04  5.2136e-01  6.0337e-04  8.4482e-04  1.2835e-04  0:01:40 1501
   500  6.2954e-04  1.0421e-03  5.3895e-04  5.0501e-01  6.2423e-04  8.3515e-04  1.2451e-04  0:06:20 1500
   501  6.4789e-04  1.0299e-03  5.4305e-04  4.9006e-01  6.4225e-04  8.2901e-04  1.2138e-04  0:05:03 1499
   502  6.6316e-04  1.0135e-03  5.4876e-04  4.7624e-01  6.5722e-04  8.2446e-04  1.1911e-04  0:04:03 1498
   503  6.7519e-04  9.9305e-04  5.5630e-04  4.6357e-01  6.6897e-04  8.2056e-04  1.1843e-04  0:03:14 1497
   504  6.8385e-04  9.6895e-04  5.6593e-04  4.5236e-01  6.7738e-04  8.1483e-04  1.1765e-04  0:02:35 1496
   505  6.8906e-04  9.4166e-04  5.7773e-04  4.4198e-01  6.8237e-04  8.1150e-04  1.1632e-04  0:02:04 1495
   506  6.9079e-04  9.1192e-04  5.9167e-04  4.3322e-01  6.8391e-04  8.0878e-04  1.1431e-04  0:01:39 1494

  iter  continuity  x-velocity  y-velocity  z-velocity      energy           k       omega     time/iter
   507  6.8904e-04  8.8049e-04  6.0760e-04  4.2576e-01  6.8202e-04  8.0206e-04  1.1209e-04  0:06:18 1493
   508  6.8386e-04  8.4847e-04  6.2528e-04  4.1904e-01  6.7673e-04  7.9549e-04  1.1069e-04  0:05:02 1492
   509  6.7534e-04  8.1686e-04  6.4439e-04  4.1295e-01  6.6813e-04  7.9008e-04  1.0946e-04  0:04:01 1491
   510  6.6360e-04  7.8682e-04  6.6455e-04  4.0776e-01  6.5636e-04  7.8120e-04  1.0886e-04  0:03:13 1490
   511  6.4879e-04  7.5968e-04  6.8537e-04  4.0386e-01  6.4156e-04  7.7031e-04  1.0754e-04  0:02:34 1489
   512  6.3110e-04  7.3675e-04  7.0641e-04  4.0127e-01  6.2391e-04  7.6074e-04  1.0575e-04  0:02:03 1488
   513  6.1070e-04  7.1913e-04  7.2726e-04  4.0008e-01  6.0359e-04  7.5136e-04  1.0417e-04  0:06:36 1487
   514  5.8794e-04  7.0771e-04  7.4749e-04  4.0033e-01  5.8096e-04  7.3939e-04  1.0402e-04  0:05:17 1486
   515  5.6347e-04  7.0348e-04  7.6684e-04  4.0229e-01  5.5666e-04  7.2483e-04  1.0351e-04  0:04:13 1485
   516  5.3752e-04  7.0520e-04  7.8466e-04  4.0589e-01  5.3092e-04  7.1146e-04  1.0298e-04  0:03:22 1484
   517  5.1013e-04  7.1424e-04  8.0068e-04  4.1047e-01  5.0379e-04  6.9528e-04  1.0160e-04  0:02:42 1483

  iter  continuity  x-velocity  y-velocity  z-velocity      energy           k       omega     time/iter
   518  4.8142e-04  7.2948e-04  8.1464e-04  4.1497e-01  4.7538e-04  6.7853e-04  1.0045e-04  0:02:09 1482
   519  4.5235e-04  7.4981e-04  8.2629e-04  4.1903e-01  4.4665e-04  6.6110e-04  9.9517e-05  0:01:43 1481
   520  4.2345e-04  7.7408e-04  8.3539e-04  4.2298e-01  4.1812e-04  6.4293e-04  9.8298e-05  0:01:23 1480
   521  3.9507e-04  8.0113e-04  8.4172e-04  4.2666e-01  3.9017e-04  6.2444e-04  9.7306e-05  0:06:02 1479
   522  3.6744e-04  8.2981e-04  8.4513e-04  4.3048e-01  3.6301e-04  6.0600e-04  9.6113e-05  0:04:49 1478
   523  3.4133e-04  8.5905e-04  8.4552e-04  4.3431e-01  3.3741e-04  5.8713e-04  9.4999e-05  0:03:51 1477
   524  3.1718e-04  8.8789e-04  8.4285e-04  4.3862e-01  3.1380e-04  5.7088e-04  9.3759e-05  0:03:05 1476
   525  2.9563e-04  9.1545e-04  8.3712e-04  4.4324e-01  2.9282e-04  5.5592e-04  9.2529e-05  0:02:28 1475
   526  2.7721e-04  9.4100e-04  8.2835e-04  4.4737e-01  2.7499e-04  5.4307e-04  9.1880e-05  0:01:58 1474
   527  2.6235e-04  9.6373e-04  8.1663e-04  4.5145e-01  2.6070e-04  5.2898e-04  9.0449e-05  0:01:34 1473
   528  2.5132e-04  9.8304e-04  8.0203e-04  4.5614e-01  2.5022e-04  5.1881e-04  8.8959e-05  0:06:10 1472

  iter  continuity  x-velocity  y-velocity  z-velocity      energy           k       omega     time/iter
   529  2.4412e-04  9.9854e-04  7.8471e-04  4.6163e-01  2.4350e-04  5.1025e-04  8.7763e-05  0:04:56 1471
   530  2.4051e-04  1.0093e-03  7.6507e-04  4.6741e-01  2.4030e-04  5.0067e-04  8.6320e-05  0:03:56 1470
   531  2.4004e-04  1.0166e-03  7.4255e-04  4.7341e-01  2.4012e-04  4.9260e-04  8.5024e-05  0:03:09 1469
   532  2.4208e-04  1.0188e-03  7.1805e-04  4.8047e-01  2.4236e-04  4.8603e-04  8.4428e-05  0:02:31 1468
   533  2.4589e-04  1.0161e-03  6.9160e-04  4.8738e-01  2.4629e-04  4.7780e-04  8.3946e-05  0:02:01 1467
   534  2.5075e-04  1.0088e-03  6.6345e-04  4.9428e-01  2.5118e-04  4.6890e-04  8.3466e-05  0:01:37 1466
   535  2.5597e-04  9.9703e-04  6.3391e-04  5.0182e-01  2.5637e-04  4.6346e-04  8.2931e-05  0:06:10 1465
   536  2.6097e-04  9.8102e-04  6.0332e-04  5.0986e-01  2.6130e-04  4.6163e-04  8.2145e-05  0:04:56 1464
   537  2.6530e-04  9.6093e-04  5.7202e-04  5.1879e-01  2.6554e-04  4.5865e-04  8.0550e-05  0:03:57 1463
   538  2.6857e-04  9.3711e-04  5.4040e-04  5.2938e-01  2.6872e-04  4.5443e-04  7.9302e-05  0:03:09 1462
   539  2.7056e-04  9.1006e-04  5.0883e-04  5.3874e-01  2.7059e-04  4.5242e-04  7.8403e-05  0:02:31 1461

  iter  continuity  x-velocity  y-velocity  z-velocity      energy           k       omega     time/iter
   540  2.7109e-04  8.8015e-04  4.7772e-04  5.4776e-01  2.7102e-04  4.5126e-04  7.8105e-05  0:02:01 1460
   541  2.7014e-04  8.4804e-04  4.4745e-04  5.5874e-01  2.6997e-04  4.5209e-04  7.7678e-05  0:06:28 1459
   542  2.6770e-04  8.1434e-04  4.1849e-04  5.7161e-01  2.6744e-04  4.5317e-04  7.7138e-05  0:05:11 1458
   543  2.6392e-04  7.7974e-04  3.9127e-04  5.8548e-01  2.6358e-04  4.5243e-04  7.6613e-05  0:04:08 1457
   544  2.5896e-04  7.4489e-04  3.6621e-04  5.9957e-01  2.5856e-04  4.5158e-04  7.6463e-05  0:03:18 1456
   545  2.5308e-04  7.1054e-04  3.4369e-04  6.1615e-01  2.5264e-04  4.4994e-04  7.6790e-05  0:02:39 1455
   546  2.4662e-04  6.7749e-04  3.2406e-04  6.3521e-01  2.4614e-04  4.4640e-04  7.6829e-05  0:02:07 1454
   547  2.3998e-04  6.4650e-04  3.0753e-04  6.5548e-01  2.3945e-04  4.4134e-04  7.6461e-05  0:01:41 1453
   548  2.3357e-04  6.1831e-04  2.9423e-04  6.7607e-01  2.3301e-04  4.3757e-04  7.5788e-05  0:06:11 1452
   549  2.2785e-04  5.9358e-04  2.8413e-04  6.9666e-01  2.2726e-04  4.3717e-04  7.5143e-05  0:04:57 1451
   550  2.2330e-04  5.7278e-04  2.7703e-04  7.1853e-01  2.2268e-04  4.3742e-04  7.4436e-05  0:03:57 1450

  iter  continuity  x-velocity  y-velocity  z-velocity      energy           k       omega     time/iter
   551  2.2034e-04  5.5622e-04  2.7262e-04  7.3823e-01  2.1965e-04  4.3661e-04  7.3753e-05  0:03:10 1449
   552  2.1929e-04  5.4395e-04  2.7042e-04  7.5463e-01  2.1853e-04  4.3739e-04  7.3209e-05  0:02:32 1448
   553  2.2036e-04  5.3578e-04  2.6995e-04  7.7128e-01  2.1951e-04  4.3806e-04  7.3109e-05  0:02:01 1447
   554  2.2358e-04  5.3127e-04  2.7070e-04  7.9063e-01  2.2262e-04  4.3848e-04  7.2727e-05  0:01:37 1446
   555  2.2883e-04  5.2983e-04  2.7222e-04  8.1440e-01  2.2773e-04  4.3810e-04  7.1965e-05  0:01:18 1445
   556  2.3583e-04  5.3074e-04  2.7413e-04  8.4298e-01  2.3458e-04  4.3955e-04  7.1078e-05  0:05:51 1444
   557  2.4424e-04  5.3326e-04  2.7612e-04  8.7495e-01  2.4281e-04  4.4159e-04  7.0659e-05  0:04:40 1443
   558  2.5366e-04  5.3660e-04  2.7801e-04  9.0878e-01  2.5204e-04  4.4326e-04  7.0645e-05  0:03:44 1442
   559  2.6367e-04  5.4005e-04  2.7969e-04  9.4403e-01  2.6186e-04  4.4458e-04  7.0566e-05  0:02:59 1441
   560  2.7387e-04  5.4297e-04  2.8113e-04  9.8006e-01  2.7186e-04  4.4441e-04  7.0156e-05  0:02:23 1440
   561  2.8389e-04  5.4483e-04  2.8234e-04  1.0164e+00  2.8168e-04  4.4332e-04  6.9857e-05  0:01:55 1439

  iter  continuity  x-velocity  y-velocity  z-velocity      energy           k       omega     time/iter
   562  2.9340e-04  5.4516e-04  2.8340e-04  1.0525e+00  2.9099e-04  4.4082e-04  6.9512e-05  0:06:19 1438
   563  3.0212e-04  5.4364e-04  2.8444e-04  1.0880e+00  2.9951e-04  4.3693e-04  6.7682e-05  0:05:03 1437
   564  3.0981e-04  5.4012e-04  2.8563e-04  1.1215e+00  3.0700e-04  4.3276e-04  6.7302e-05  0:04:02 1436
   565  3.1628e-04  5.3451e-04  2.8719e-04  1.1544e+00  3.1329e-04  4.3039e-04  6.6460e-05  0:03:14 1435
   566  3.2138e-04  5.2682e-04  2.8931e-04  1.1872e+00  3.1822e-04  4.2721e-04  6.5530e-05  0:02:35 1434
   567  3.2500e-04  5.1719e-04  2.9220e-04  1.2187e+00  3.2169e-04  4.2259e-04  6.4871e-05  0:02:04 1433
   568  3.2705e-04  5.0574e-04  2.9601e-04  1.2487e+00  3.2359e-04  4.1835e-04  6.3912e-05  0:01:39 1432
   569  3.2744e-04  4.9273e-04  3.0085e-04  1.2763e+00  3.2385e-04  4.1538e-04  6.3254e-05  0:01:19 1431
   570  3.2612e-04  4.7852e-04  3.0678e-04  1.3029e+00  3.2243e-04  4.1103e-04  6.2330e-05  0:05:49 1430
   571  3.2310e-04  4.6355e-04  3.1379e-04  1.3327e+00  3.1933e-04  4.0624e-04  6.0968e-05  0:04:39 1429
   572  3.1841e-04  4.4834e-04  3.2179e-04  1.3666e+00  3.1456e-04  3.9993e-04  5.9990e-05  0:03:43 1428

  iter  continuity  x-velocity  y-velocity  z-velocity      energy           k       omega     time/iter
   573  3.1205e-04  4.3346e-04  3.3066e-04  1.4048e+00  3.0817e-04  3.9286e-04  5.9527e-05  0:02:58 1427
   574  3.0410e-04  4.1957e-04  3.4023e-04  1.4475e+00  3.0019e-04  3.8788e-04  5.9194e-05  0:02:23 1426
   575  2.9462e-04  4.0735e-04  3.5028e-04  1.4921e+00  2.9071e-04  3.8308e-04  5.9015e-05  0:01:54 1425
   576  2.8372e-04  3.9748e-04  3.6060e-04  1.5362e+00  2.7983e-04  3.7760e-04  5.8553e-05  0:01:31 1424
   577  2.7152e-04  3.9053e-04  3.7093e-04  1.5776e+00  2.6768e-04  3.7309e-04  5.8037e-05  0:01:13 1423
   578  2.5817e-04  3.8699e-04  3.8103e-04  1.6157e+00  2.5440e-04  3.6841e-04  5.7630e-05  0:05:43 1422
   579  2.4380e-04  3.8714e-04  3.9067e-04  1.6518e+00  2.4013e-04  3.6380e-04  5.7317e-05  0:04:34 1421
   580  2.2864e-04  3.9101e-04  3.9962e-04  1.6868e+00  2.2508e-04  3.6017e-04  5.7282e-05  0:03:39 1420
   581  2.1290e-04  3.9841e-04  4.0769e-04  1.7176e+00  2.0948e-04  3.5666e-04  5.7105e-05  0:02:55 1419
   582  1.9686e-04  4.0895e-04  4.1470e-04  1.7399e+00  1.9360e-04  3.5250e-04  5.6608e-05  0:02:20 1418
   583  1.8080e-04  4.2209e-04  4.2050e-04  1.7509e+00  1.7774e-04  3.4810e-04  5.6066e-05  0:01:52 1417

  iter  continuity  x-velocity  y-velocity  z-velocity      energy           k       omega     time/iter
   584  1.6507e-04  4.3720e-04  4.2496e-04  1.7509e+00  1.6225e-04  3.4390e-04  5.5563e-05  0:01:29 1416
   585  1.5008e-04  4.5363e-04  4.2797e-04  1.7422e+00  1.4753e-04  3.4072e-04  5.5112e-05  0:05:55 1415
   586  1.3627e-04  4.7073e-04  4.2946e-04  1.7283e+00  1.3403e-04  3.3759e-04  5.4542e-05  0:04:43 1414
   587  1.2415e-04  4.8788e-04  4.2938e-04  1.7122e+00  1.2227e-04  3.3392e-04  5.3839e-05  0:03:47 1413
   588  1.1428e-04  5.0453e-04  4.2771e-04  1.6954e+00  1.1281e-04  3.2962e-04  5.3234e-05  0:03:01 1412
   589  1.0718e-04  5.2021e-04  4.2443e-04  1.6788e+00  1.0613e-04  3.2515e-04  5.2674e-05  0:02:25 1411
   590  1.0319e-04  5.3450e-04  4.1957e-04  1.6637e+00  1.0256e-04  3.2078e-04  5.2043e-05  0:01:56 1410
   591  1.0235e-04  5.4703e-04  4.1319e-04  1.6520e+00  1.0210e-04  3.1718e-04  5.1393e-05  0:01:33 1409
   592  1.0436e-04  5.5754e-04  4.0536e-04  1.6422e+00  1.0441e-04  3.1273e-04  5.0730e-05  0:05:56 1408
   593  1.0865e-04  5.6578e-04  3.9615e-04  1.6323e+00  1.0890e-04  3.0688e-04  4.9946e-05  0:04:44 1407
   594  1.1450e-04  5.7160e-04  3.8568e-04  1.6223e+00  1.1487e-04  3.0237e-04  4.9338e-05  0:03:47 1406

  iter  continuity  x-velocity  y-velocity  z-velocity      energy           k       omega     time/iter
   595  1.2125e-04  5.7491e-04  3.7405e-04  1.6118e+00  1.2166e-04  2.9729e-04  4.8761e-05  0:03:02 1405
   596  1.2833e-04  5.7563e-04  3.6140e-04  1.6025e+00  1.2874e-04  2.9322e-04  4.8267e-05  0:02:25 1404
   597  1.3532e-04  5.7374e-04  3.4785e-04  1.5923e+00  1.3569e-04  2.9082e-04  4.7585e-05  0:01:56 1403
   598  1.4190e-04  5.6925e-04  3.3359e-04  1.5801e+00  1.4221e-04  2.8865e-04  4.7168e-05  0:01:33 1402
   599  1.4783e-04  5.6226e-04  3.1878e-04  1.5671e+00  1.4806e-04  2.8628e-04  4.6870e-05  0:05:54 1401
   600  1.5293e-04  5.5283e-04  3.0361e-04  1.5540e+00  1.5307e-04  2.8351e-04  4.6544e-05  0:04:43 1400
   601  1.5707e-04  5.4119e-04  2.8829e-04  1.5390e+00  1.5713e-04  2.8139e-04  4.6159e-05  0:03:46 1399
   602  1.6017e-04  5.2753e-04  2.7302e-04  1.5219e+00  1.6016e-04  2.8091e-04  4.5701e-05  0:03:01 1398
   603  1.6219e-04  5.1206e-04  2.5803e-04  1.5029e+00  1.6211e-04  2.7935e-04  4.5170e-05  0:02:25 1397
   604  1.6311e-04  4.9506e-04  2.4354e-04  1.4822e+00  1.6296e-04  2.7713e-04  4.4577e-05  0:01:56 1396
   605  1.6292e-04  4.7682e-04  2.2979e-04  1.4584e+00  1.6271e-04  2.7473e-04  4.4234e-05  0:01:33 1395

  iter  continuity  x-velocity  y-velocity  z-velocity      energy           k       omega     time/iter
   606  1.6164e-04  4.5767e-04  2.1700e-04  1.4313e+00  1.6139e-04  2.7286e-04  4.4069e-05  0:05:53 1394
   607  1.5934e-04  4.3801e-04  2.0538e-04  1.4026e+00  1.5906e-04  2.7246e-04  4.4034e-05  0:04:42 1393
   608  1.5610e-04  4.1821e-04  1.9510e-04  1.3728e+00  1.5581e-04  2.7255e-04  4.4046e-05  0:03:45 1392
   609  1.5204e-04  3.9870e-04  1.8632e-04  1.3433e+00  1.5174e-04  2.7274e-04  4.4242e-05  0:03:00 1391
   610  1.4732e-04  3.7992e-04  1.7911e-04  1.3147e+00  1.4701e-04  2.7320e-04  4.4463e-05  0:02:24 1390
   611  1.4212e-04  3.6230e-04  1.7348e-04  1.2880e+00  1.4182e-04  2.7319e-04  4.4420e-05  0:01:55 1389
   612  1.3668e-04  3.4625e-04  1.6937e-04  1.2640e+00  1.3641e-04  2.7299e-04  4.4312e-05  0:01:32 1388
   613  1.3129e-04  3.3216e-04  1.6664e-04  1.2427e+00  1.3104e-04  2.7365e-04  4.4192e-05  0:01:14 1387
   614  1.2627e-04  3.2033e-04  1.6510e-04  1.2238e+00  1.2604e-04  2.7465e-04  4.4092e-05  0:05:36 1386
   615  1.2197e-04  3.1097e-04  1.6451e-04  1.2024e+00  1.2176e-04  2.7545e-04  4.3823e-05  0:04:29 1385
   616  1.1873e-04  3.0417e-04  1.6462e-04  1.1763e+00  1.1854e-04  2.7496e-04  4.3694e-05  0:03:35 1384

  iter  continuity  x-velocity  y-velocity  z-velocity      energy           k       omega     time/iter
   617  1.1686e-04  2.9985e-04  1.6520e-04  1.1459e+00  1.1667e-04  2.7506e-04  4.3742e-05  0:02:52 1383
   618  1.1657e-04  2.9781e-04  1.6602e-04  1.1139e+00  1.1636e-04  2.7495e-04  4.3821e-05  0:02:17 1382
   619  1.1794e-04  2.9772e-04  1.6688e-04  1.0846e+00  1.1769e-04  2.7547e-04  4.3924e-05  0:01:50 1381
   620  1.2089e-04  2.9917e-04  1.6762e-04  1.0614e+00  1.2059e-04  2.7523e-04  4.3938e-05  0:01:28 1380
   621  1.2525e-04  3.0171e-04  1.6813e-04  1.0452e+00  1.2487e-04  2.7456e-04  4.3962e-05  0:05:46 1379
   622  1.3071e-04  3.0490e-04  1.6834e-04  1.0358e+00  1.3025e-04  2.7426e-04  4.3858e-05  0:04:37 1378
   623  1.3695e-04  3.0832e-04  1.6822e-04  1.0320e+00  1.3638e-04  2.7403e-04  4.3811e-05  0:03:41 1377
   624  1.4361e-04  3.1158e-04  1.6776e-04  1.0324e+00  1.4293e-04  2.7195e-04  4.3779e-05  0:02:57 1376
[...]
  1838  3.2994e-08  6.2986e-08  5.9851e-08  3.2372e-03  3.1949e-08  4.0720e-08  6.0957e-09  0:00:17  162
  1839  3.2799e-08  6.2576e-08  5.9495e-08  3.2181e-03  3.1760e-08  4.0464e-08  6.0606e-09  0:00:13  161
  1840  3.2604e-08  6.2173e-08  5.9143e-08  3.1991e-03  3.1571e-08  4.0208e-08  6.0258e-09  0:00:11  160
  1841  3.2409e-08  6.1777e-08  5.8795e-08  3.1803e-03  3.1382e-08  3.9953e-08  5.9913e-09  0:00:40  159
  1842  3.2215e-08  6.1386e-08  5.8451e-08  3.1615e-03  3.1193e-08  3.9698e-08  5.9571e-09  0:00:32  158
  1843  3.2021e-08  6.1001e-08  5.8111e-08  3.1428e-03  3.1005e-08  3.9444e-08  5.9231e-09  0:00:25  157
  1844  3.1827e-08  6.0622e-08  5.7774e-08  3.1242e-03  3.0817e-08  3.9191e-08  5.8894e-09  0:00:20  156
  1845  3.1634e-08  6.0247e-08  5.7440e-08  3.1057e-03  3.0630e-08  3.8939e-08  5.8560e-09  0:00:16  155
  1846  3.1442e-08  5.9878e-08  5.7108e-08  3.0872e-03  3.0443e-08  3.8688e-08  5.8228e-09  0:00:13  154
  1847  3.1250e-08  5.9513e-08  5.6779e-08  3.0689e-03  3.0257e-08  3.8440e-08  5.7898e-09  0:00:10  153
  1848  3.1059e-08  5.9153e-08  5.6452e-08  3.0506e-03  3.0072e-08  3.8193e-08  5.7571e-09  0:00:38  152

  iter  continuity  x-velocity  y-velocity  z-velocity      energy           k       omega     time/iter
  1849  3.0870e-08  5.8797e-08  5.6126e-08  3.0324e-03  2.9888e-08  3.7948e-08  5.7246e-09  0:00:31  151
  1850  3.0681e-08  5.8444e-08  5.5803e-08  3.0142e-03  2.9705e-08  3.7706e-08  5.6922e-09  0:00:24  150
  1851  3.0493e-08  5.8095e-08  5.5481e-08  2.9962e-03  2.9523e-08  3.7465e-08  5.6601e-09  0:00:19  149
  1852  3.0307e-08  5.7748e-08  5.5160e-08  2.9781e-03  2.9342e-08  3.7227e-08  5.6282e-09  0:00:15  148
  1853  3.0122e-08  5.7405e-08  5.4841e-08  2.9602e-03  2.9163e-08  3.6991e-08  5.5965e-09  0:00:12  147
  1854  2.9938e-08  5.7064e-08  5.4523e-08  2.9423e-03  2.8985e-08  3.6758e-08  5.5649e-09  0:00:10  146
  1855  2.9757e-08  5.6726e-08  5.4206e-08  2.9244e-03  2.8809e-08  3.6529e-08  5.5335e-09  0:00:37  145
  1856  2.9576e-08  5.6389e-08  5.3890e-08  2.9066e-03  2.8634e-08  3.6301e-08  5.5022e-09  0:00:29  144
  1857  2.9398e-08  5.6055e-08  5.3575e-08  2.8889e-03  2.8462e-08  3.6077e-08  5.4711e-09  0:00:23  143
  1858  2.9221e-08  5.5722e-08  5.3261e-08  2.8712e-03  2.8290e-08  3.5856e-08  5.4400e-09  0:00:18  142
  1859  2.9047e-08  5.5390e-08  5.2948e-08  2.8535e-03  2.8121e-08  3.5638e-08  5.4091e-09  0:00:15  141

  iter  continuity  x-velocity  y-velocity  z-velocity      energy           k       omega     time/iter
  1860  2.8874e-08  5.5060e-08  5.2636e-08  2.8359e-03  2.7954e-08  3.5423e-08  5.3783e-09  0:00:12  140
  1861  2.8703e-08  5.4731e-08  5.2325e-08  2.8184e-03  2.7788e-08  3.5211e-08  5.3474e-09  0:00:37  139
  1862  2.8534e-08  5.4403e-08  5.2015e-08  2.8009e-03  2.7625e-08  3.5002e-08  5.3167e-09  0:00:29  138
  1863  2.8367e-08  5.4076e-08  5.1707e-08  2.7835e-03  2.7464e-08  3.4797e-08  5.2860e-09  0:00:23  137
  1864  2.8203e-08  5.3750e-08  5.1399e-08  2.7661e-03  2.7304e-08  3.4594e-08  5.2553e-09  0:00:19  136
  1865  2.8040e-08  5.3425e-08  5.1093e-08  2.7488e-03  2.7147e-08  3.4394e-08  5.2246e-09  0:00:15  135
  1866  2.7879e-08  5.3100e-08  5.0788e-08  2.7315e-03  2.6991e-08  3.4196e-08  5.1940e-09  0:00:12  134
  1867  2.7720e-08  5.2777e-08  5.0485e-08  2.7143e-03  2.6837e-08  3.4001e-08  5.1633e-09  0:00:09  133
  1868  2.7563e-08  5.2454e-08  5.0183e-08  2.6972e-03  2.6686e-08  3.3809e-08  5.1327e-09  0:00:34  132
  1869  2.7408e-08  5.2132e-08  4.9883e-08  2.6801e-03  2.6536e-08  3.3618e-08  5.1021e-09  0:00:27  131
  1870  2.7255e-08  5.1811e-08  4.9585e-08  2.6632e-03  2.6388e-08  3.3431e-08  5.0715e-09  0:00:21  130

  iter  continuity  x-velocity  y-velocity  z-velocity      energy           k       omega     time/iter
  1871  2.7104e-08  5.1490e-08  4.9289e-08  2.6462e-03  2.6241e-08  3.3245e-08  5.0409e-09  0:00:17  129
  1872  2.6954e-08  5.1171e-08  4.8995e-08  2.6294e-03  2.6096e-08  3.3061e-08  5.0104e-09  0:00:13  128
  1873  2.6806e-08  5.0853e-08  4.8703e-08  2.6127e-03  2.5953e-08  3.2879e-08  4.9798e-09  0:00:11  127
  1874  2.6659e-08  5.0537e-08  4.8413e-08  2.5960e-03  2.5811e-08  3.2698e-08  4.9492e-09  0:00:08  126
  1875  2.6514e-08  5.0222e-08  4.8126e-08  2.5794e-03  2.5671e-08  3.2519e-08  4.9187e-09  0:00:32  125
  1876  2.6370e-08  4.9908e-08  4.7841e-08  2.5629e-03  2.5531e-08  3.2341e-08  4.8882e-09  0:00:25  124
  1877  2.6227e-08  4.9596e-08  4.7559e-08  2.5466e-03  2.5393e-08  3.2164e-08  4.8577e-09  0:00:20  123
  1878  2.6085e-08  4.9286e-08  4.7279e-08  2.5303e-03  2.5256e-08  3.1988e-08  4.8273e-09  0:00:16  122
  1879  2.5944e-08  4.8977e-08  4.7002e-08  2.5141e-03  2.5120e-08  3.1813e-08  4.7969e-09  0:00:13  121
  1880  2.5804e-08  4.8671e-08  4.6727e-08  2.4980e-03  2.4984e-08  3.1639e-08  4.7665e-09  0:00:10  120
  1881  2.5665e-08  4.8367e-08  4.6456e-08  2.4821e-03  2.4849e-08  3.1465e-08  4.7362e-09  0:00:08  119

  iter  continuity  x-velocity  y-velocity  z-velocity      energy           k       omega     time/iter
  1882  2.5526e-08  4.8066e-08  4.6187e-08  2.4663e-03  2.4715e-08  3.1291e-08  4.7060e-09  0:00:30  118
  1883  2.5388e-08  4.7766e-08  4.5920e-08  2.4505e-03  2.4581e-08  3.1118e-08  4.6758e-09  0:00:24  117
  1884  2.5250e-08  4.7470e-08  4.5657e-08  2.4349e-03  2.4447e-08  3.0945e-08  4.6458e-09  0:00:19  116
  1885  2.5112e-08  4.7176e-08  4.5396e-08  2.4195e-03  2.4314e-08  3.0771e-08  4.6158e-09  0:00:15  115
  1886  2.4974e-08  4.6885e-08  4.5138e-08  2.4041e-03  2.4180e-08  3.0598e-08  4.5859e-09  0:00:12  114
  1887  2.4837e-08  4.6597e-08  4.4882e-08  2.3889e-03  2.4047e-08  3.0425e-08  4.5562e-09  0:00:09  113
  1888  2.4699e-08  4.6312e-08  4.4629e-08  2.3739e-03  2.3913e-08  3.0252e-08  4.5266e-09  0:00:07  112
  1889  2.4562e-08  4.6029e-08  4.4378e-08  2.3589e-03  2.3780e-08  3.0078e-08  4.4971e-09  0:00:28  111
  1890  2.4424e-08  4.5750e-08  4.4130e-08  2.3441e-03  2.3646e-08  2.9905e-08  4.4678e-09  0:00:22  110
  1891  2.4285e-08  4.5474e-08  4.3883e-08  2.3295e-03  2.3512e-08  2.9731e-08  4.4386e-09  0:00:18  109
  1892  2.4147e-08  4.5202e-08  4.3639e-08  2.3150e-03  2.3377e-08  2.9556e-08  4.4096e-09  0:00:14  108

  iter  continuity  x-velocity  y-velocity  z-velocity      energy           k       omega     time/iter
  1893  2.4008e-08  4.4932e-08  4.3397e-08  2.3006e-03  2.3243e-08  2.9382e-08  4.3808e-09  0:00:11  107
  1894  2.3869e-08  4.4666e-08  4.3157e-08  2.2863e-03  2.3107e-08  2.9208e-08  4.3522e-09  0:00:09  106
  1895  2.3729e-08  4.4402e-08  4.2918e-08  2.2722e-03  2.2972e-08  2.9033e-08  4.3238e-09  0:00:07  105
  1896  2.3589e-08  4.4142e-08  4.2681e-08  2.2583e-03  2.2835e-08  2.8857e-08  4.2956e-09  0:00:06  104
  1897  2.3448e-08  4.3885e-08  4.2446e-08  2.2445e-03  2.2699e-08  2.8682e-08  4.2676e-09  0:00:25  103
  1898  2.3307e-08  4.3631e-08  4.2212e-08  2.2308e-03  2.2561e-08  2.8506e-08  4.2399e-09  0:00:20  102
  1899  2.3165e-08  4.3380e-08  4.1979e-08  2.2172e-03  2.2424e-08  2.8330e-08  4.2123e-09  0:00:16  101
  1900  2.3023e-08  4.3131e-08  4.1747e-08  2.2038e-03  2.2285e-08  2.8153e-08  4.1850e-09  0:00:12  100
  1901  2.2881e-08  4.2886e-08  4.1515e-08  2.1905e-03  2.2147e-08  2.7977e-08  4.1579e-09  0:00:10   99
  1902  2.2738e-08  4.2643e-08  4.1285e-08  2.1774e-03  2.2008e-08  2.7801e-08  4.1310e-09  0:00:08   98
  1903  2.2595e-08  4.2402e-08  4.1055e-08  2.1644e-03  2.1868e-08  2.7625e-08  4.1043e-09  0:00:06   97

  iter  continuity  x-velocity  y-velocity  z-velocity      energy           k       omega     time/iter
  1904  2.2451e-08  4.2164e-08  4.0826e-08  2.1515e-03  2.1729e-08  2.7449e-08  4.0779e-09  0:00:24   96
  1905  2.2307e-08  4.1928e-08  4.0596e-08  2.1387e-03  2.1589e-08  2.7274e-08  4.0517e-09  0:00:19   95
  1906  2.2163e-08  4.1694e-08  4.0368e-08  2.1261e-03  2.1449e-08  2.7099e-08  4.0257e-09  0:00:15   94
  1907  2.2019e-08  4.1462e-08  4.0139e-08  2.1135e-03  2.1309e-08  2.6924e-08  4.0000e-09  0:00:12   93
  1908  2.1875e-08  4.1232e-08  3.9910e-08  2.1011e-03  2.1169e-08  2.6750e-08  3.9745e-09  0:00:09   92
  1909  2.1731e-08  4.1003e-08  3.9681e-08  2.0888e-03  2.1028e-08  2.6577e-08  3.9492e-09  0:00:07   91
  1910  2.1587e-08  4.0776e-08  3.9452e-08  2.0766e-03  2.0888e-08  2.6404e-08  3.9242e-09  0:00:06   90
  1911  2.1443e-08  4.0550e-08  3.9222e-08  2.0645e-03  2.0749e-08  2.6233e-08  3.8994e-09  0:00:22   89
  1912  2.1299e-08  4.0325e-08  3.8992e-08  2.0525e-03  2.0609e-08  2.6063e-08  3.8748e-09  0:00:18   88
  1913  2.1156e-08  4.0101e-08  3.8762e-08  2.0406e-03  2.0470e-08  2.5894e-08  3.8504e-09  0:00:14   87
  1914  2.1014e-08  3.9878e-08  3.8532e-08  2.0288e-03  2.0331e-08  2.5726e-08  3.8262e-09  0:00:11   86

  iter  continuity  x-velocity  y-velocity  z-velocity      energy           k       omega     time/iter
  1915  2.0872e-08  3.9656e-08  3.8301e-08  2.0171e-03  2.0193e-08  2.5559e-08  3.8022e-09  0:00:09   85
  1916  2.0730e-08  3.9434e-08  3.8069e-08  2.0055e-03  2.0056e-08  2.5394e-08  3.7785e-09  0:00:07   84
  1917  2.0590e-08  3.9213e-08  3.7837e-08  1.9939e-03  1.9919e-08  2.5230e-08  3.7549e-09  0:00:05   83
  1918  2.0450e-08  3.8992e-08  3.7605e-08  1.9824e-03  1.9783e-08  2.5068e-08  3.7316e-09  0:00:04   82
  1919  2.0311e-08  3.8771e-08  3.7373e-08  1.9710e-03  1.9649e-08  2.4907e-08  3.7084e-09  0:00:20   81
  1920  2.0173e-08  3.8550e-08  3.7139e-08  1.9597e-03  1.9515e-08  2.4748e-08  3.6854e-09  0:00:16   80
  1921  2.0036e-08  3.8330e-08  3.6906e-08  1.9484e-03  1.9382e-08  2.4591e-08  3.6626e-09  0:00:12   79
  1922  1.9900e-08  3.8109e-08  3.6672e-08  1.9372e-03  1.9250e-08  2.4435e-08  3.6399e-09  0:00:10   78
  1923  1.9765e-08  3.7888e-08  3.6439e-08  1.9261e-03  1.9119e-08  2.4281e-08  3.6174e-09  0:00:08   77
  1924  1.9631e-08  3.7666e-08  3.6205e-08  1.9150e-03  1.8990e-08  2.4128e-08  3.5952e-09  0:00:06   76
  1925  1.9499e-08  3.7445e-08  3.5971e-08  1.9040e-03  1.8861e-08  2.3977e-08  3.5730e-09  0:00:05   75

  iter  continuity  x-velocity  y-velocity  z-velocity      energy           k       omega     time/iter
  1926  1.9368e-08  3.7223e-08  3.5737e-08  1.8930e-03  1.8734e-08  2.3828e-08  3.5510e-09  0:00:19   74
  1927  1.9239e-08  3.7001e-08  3.5503e-08  1.8821e-03  1.8609e-08  2.3680e-08  3.5292e-09  0:00:15   73
  1928  1.9110e-08  3.6779e-08  3.5269e-08  1.8712e-03  1.8485e-08  2.3534e-08  3.5075e-09  0:00:12   72
  1929  1.8983e-08  3.6556e-08  3.5036e-08  1.8604e-03  1.8362e-08  2.3390e-08  3.4859e-09  0:00:09   71
  1930  1.8858e-08  3.6333e-08  3.4804e-08  1.8496e-03  1.8240e-08  2.3247e-08  3.4645e-09  0:00:07   70
  1931  1.8734e-08  3.6109e-08  3.4572e-08  1.8389e-03  1.8120e-08  2.3105e-08  3.4432e-09  0:00:06   69
  1932  1.8611e-08  3.5886e-08  3.4340e-08  1.8281e-03  1.8001e-08  2.2965e-08  3.4220e-09  0:00:04   68
  1933  1.8490e-08  3.5662e-08  3.4110e-08  1.8175e-03  1.7884e-08  2.2826e-08  3.4010e-09  0:00:04   67
  1934  1.8371e-08  3.5438e-08  3.3880e-08  1.8069e-03  1.7768e-08  2.2688e-08  3.3801e-09  0:00:16   66
  1935  1.8252e-08  3.5214e-08  3.3651e-08  1.7963e-03  1.7654e-08  2.2552e-08  3.3593e-09  0:00:13   65
  1936  1.8135e-08  3.4990e-08  3.3424e-08  1.7857e-03  1.7541e-08  2.2417e-08  3.3386e-09  0:00:10   64

  iter  continuity  x-velocity  y-velocity  z-velocity      energy           k       omega     time/iter
  1937  1.8020e-08  3.4767e-08  3.3198e-08  1.7752e-03  1.7429e-08  2.2282e-08  3.3180e-09  0:00:08   63
  1938  1.7906e-08  3.4543e-08  3.2973e-08  1.7648e-03  1.7318e-08  2.2149e-08  3.2976e-09  0:00:06   62
  1939  1.7793e-08  3.4320e-08  3.2749e-08  1.7543e-03  1.7209e-08  2.2017e-08  3.2773e-09  0:00:05   61
  1940  1.7681e-08  3.4097e-08  3.2528e-08  1.7439e-03  1.7101e-08  2.1886e-08  3.2571e-09  0:00:04   60
  1941  1.7571e-08  3.3875e-08  3.2307e-08  1.7335e-03  1.6995e-08  2.1755e-08  3.2370e-09  0:00:15   59
  1942  1.7461e-08  3.3653e-08  3.2089e-08  1.7232e-03  1.6889e-08  2.1626e-08  3.2170e-09  0:00:12   58
  1943  1.7353e-08  3.3432e-08  3.1873e-08  1.7129e-03  1.6785e-08  2.1497e-08  3.1972e-09  0:00:09   57
  1944  1.7247e-08  3.3212e-08  3.1658e-08  1.7027e-03  1.6681e-08  2.1369e-08  3.1775e-09  0:00:07   56
  1945  1.7141e-08  3.2992e-08  3.1445e-08  1.6925e-03  1.6579e-08  2.1241e-08  3.1579e-09  0:00:06   55
  1946  1.7036e-08  3.2774e-08  3.1234e-08  1.6823e-03  1.6477e-08  2.1114e-08  3.1384e-09  0:00:04   54
  1947  1.6932e-08  3.2557e-08  3.1026e-08  1.6721e-03  1.6377e-08  2.0988e-08  3.1190e-09  0:00:03   53

  iter  continuity  x-velocity  y-velocity  z-velocity      energy           k       omega     time/iter
  1948  1.6829e-08  3.2341e-08  3.0819e-08  1.6620e-03  1.6277e-08  2.0862e-08  3.0998e-09  0:00:03   52
  1949  1.6727e-08  3.2126e-08  3.0615e-08  1.6520e-03  1.6179e-08  2.0736e-08  3.0808e-09  0:00:12   51
  1950  1.6626e-08  3.1913e-08  3.0412e-08  1.6420e-03  1.6081e-08  2.0611e-08  3.0618e-09  0:00:10   50
  1951  1.6525e-08  3.1701e-08  3.0212e-08  1.6320e-03  1.5983e-08  2.0486e-08  3.0430e-09  0:00:08   49
  1952  1.6425e-08  3.1491e-08  3.0014e-08  1.6220e-03  1.5887e-08  2.0361e-08  3.0243e-09  0:00:06   48
  1953  1.6326e-08  3.1283e-08  2.9818e-08  1.6121e-03  1.5791e-08  2.0237e-08  3.0058e-09  0:00:05   47
  1954  1.6228e-08  3.1076e-08  2.9624e-08  1.6023e-03  1.5696e-08  2.0113e-08  2.9874e-09  0:00:04   46
  1955  1.6130e-08  3.0871e-08  2.9432e-08  1.5925e-03  1.5601e-08  1.9989e-08  2.9691e-09  0:00:03   45
  1956  1.6033e-08  3.0667e-08  2.9243e-08  1.5827e-03  1.5507e-08  1.9866e-08  2.9510e-09  0:00:02   44
  1957  1.5936e-08  3.0466e-08  2.9055e-08  1.5730e-03  1.5414e-08  1.9743e-08  2.9330e-09  0:00:10   43
  1958  1.5840e-08  3.0266e-08  2.8870e-08  1.5633e-03  1.5321e-08  1.9620e-08  2.9151e-09  0:00:08   42

  iter  continuity  x-velocity  y-velocity  z-velocity      energy           k       omega     time/iter
  1959  1.5745e-08  3.0069e-08  2.8686e-08  1.5537e-03  1.5228e-08  1.9498e-08  2.8974e-09  0:00:06   41
  1960  1.5650e-08  2.9873e-08  2.8505e-08  1.5441e-03  1.5136e-08  1.9375e-08  2.8799e-09  0:00:05   40
  1961  1.5555e-08  2.9679e-08  2.8325e-08  1.5345e-03  1.5045e-08  1.9254e-08  2.8625e-09  0:00:04   39
  1962  1.5461e-08  2.9487e-08  2.8147e-08  1.5250e-03  1.4954e-08  1.9132e-08  2.8452e-09  0:00:03   38
  1963  1.5367e-08  2.9297e-08  2.7971e-08  1.5156e-03  1.4863e-08  1.9011e-08  2.8281e-09  0:00:02   37
  1964  1.5274e-08  2.9109e-08  2.7796e-08  1.5062e-03  1.4773e-08  1.8890e-08  2.8111e-09  0:00:02   36
  1965  1.5181e-08  2.8923e-08  2.7624e-08  1.4968e-03  1.4683e-08  1.8770e-08  2.7943e-09  0:00:08   35
  1966  1.5089e-08  2.8738e-08  2.7452e-08  1.4875e-03  1.4593e-08  1.8650e-08  2.7776e-09  0:00:07   34
  1967  1.4997e-08  2.8556e-08  2.7283e-08  1.4782e-03  1.4504e-08  1.8531e-08  2.7610e-09  0:00:05   33
  1968  1.4905e-08  2.8375e-08  2.7115e-08  1.4690e-03  1.4416e-08  1.8412e-08  2.7445e-09  0:00:04   32
  1969  1.4814e-08  2.8196e-08  2.6948e-08  1.4598e-03  1.4327e-08  1.8294e-08  2.7282e-09  0:00:03   31

  iter  continuity  x-velocity  y-velocity  z-velocity      energy           k       omega     time/iter
  1970  1.4724e-08  2.8019e-08  2.6783e-08  1.4507e-03  1.4240e-08  1.8176e-08  2.7120e-09  0:00:02   30
  1971  1.4633e-08  2.7843e-08  2.6619e-08  1.4416e-03  1.4152e-08  1.8059e-08  2.6960e-09  0:00:08   29
  1972  1.4544e-08  2.7669e-08  2.6456e-08  1.4326e-03  1.4066e-08  1.7942e-08  2.6800e-09  0:00:06   28
  1973  1.4455e-08  2.7497e-08  2.6294e-08  1.4236e-03  1.3979e-08  1.7827e-08  2.6642e-09  0:00:05   27
  1974  1.4366e-08  2.7326e-08  2.6134e-08  1.4147e-03  1.3894e-08  1.7712e-08  2.6484e-09  0:00:04   26
  1975  1.4278e-08  2.7157e-08  2.5975e-08  1.4058e-03  1.3808e-08  1.7598e-08  2.6328e-09  0:00:03   25
  1976  1.4190e-08  2.6989e-08  2.5816e-08  1.3969e-03  1.3724e-08  1.7485e-08  2.6173e-09  0:00:02   24
  1977  1.4103e-08  2.6822e-08  2.5659e-08  1.3881e-03  1.3639e-08  1.7372e-08  2.6019e-09  0:00:02   23
  1978  1.4017e-08  2.6657e-08  2.5503e-08  1.3793e-03  1.3556e-08  1.7261e-08  2.5866e-09  0:00:01   22
  1979  1.3931e-08  2.6493e-08  2.5348e-08  1.3706e-03  1.3473e-08  1.7150e-08  2.5714e-09  0:00:05   21
  1980  1.3846e-08  2.6330e-08  2.5193e-08  1.3619e-03  1.3390e-08  1.7041e-08  2.5563e-09  0:00:04   20

  iter  continuity  x-velocity  y-velocity  z-velocity      energy           k       omega     time/iter
  1981  1.3762e-08  2.6169e-08  2.5040e-08  1.3533e-03  1.3309e-08  1.6932e-08  2.5412e-09  0:00:03   19
  1982  1.3678e-08  2.6008e-08  2.4887e-08  1.3446e-03  1.3227e-08  1.6825e-08  2.5263e-09  0:00:02   18
  1983  1.3595e-08  2.5849e-08  2.4736e-08  1.3361e-03  1.3147e-08  1.6719e-08  2.5114e-09  0:00:02   17
  1984  1.3512e-08  2.5690e-08  2.4585e-08  1.3276e-03  1.3067e-08  1.6613e-08  2.4966e-09  0:00:01   16
  1985  1.3430e-08  2.5533e-08  2.4435e-08  1.3191e-03  1.2988e-08  1.6509e-08  2.4819e-09  0:00:01   15
  1986  1.3349e-08  2.5376e-08  2.4286e-08  1.3107e-03  1.2909e-08  1.6406e-08  2.4673e-09  0:00:04   14
  1987  1.3268e-08  2.5220e-08  2.4138e-08  1.3023e-03  1.2831e-08  1.6303e-08  2.4527e-09  0:00:03   13
  1988  1.3189e-08  2.5066e-08  2.3990e-08  1.2939e-03  1.2754e-08  1.6202e-08  2.4382e-09  0:00:02   12
  1989  1.3110e-08  2.4912e-08  2.3844e-08  1.2856e-03  1.2678e-08  1.6102e-08  2.4237e-09  0:00:01   11
  1990  1.3031e-08  2.4759e-08  2.3698e-08  1.2773e-03  1.2602e-08  1.6003e-08  2.4093e-09  0:00:01   10
  1991  1.2953e-08  2.4606e-08  2.3553e-08  1.2691e-03  1.2527e-08  1.5905e-08  2.3950e-09  0:00:01    9

  iter  continuity  x-velocity  y-velocity  z-velocity      energy           k       omega     time/iter
  1992  1.2876e-08  2.4455e-08  2.3409e-08  1.2609e-03  1.2452e-08  1.5808e-08  2.3807e-09  0:00:01    8
  1993  1.2800e-08  2.4304e-08  2.3266e-08  1.2528e-03  1.2378e-08  1.5713e-08  2.3665e-09  0:00:00    7
  1994  1.2724e-08  2.4154e-08  2.3124e-08  1.2447e-03  1.2305e-08  1.5618e-08  2.3523e-09  0:00:01    6
  1995  1.2649e-08  2.4005e-08  2.2983e-08  1.2366e-03  1.2233e-08  1.5524e-08  2.3382e-09  0:00:01    5
  1996  1.2575e-08  2.3857e-08  2.2843e-08  1.2286e-03  1.2161e-08  1.5431e-08  2.3241e-09  0:00:01    4
  1997  1.2501e-08  2.3710e-08  2.2703e-08  1.2206e-03  1.2089e-08  1.5338e-08  2.3100e-09  0:00:00    3
  1998  1.2428e-08  2.3563e-08  2.2565e-08  1.2127e-03  1.2018e-08  1.5247e-08  2.2961e-09  0:00:00    2
  1999  1.2355e-08  2.3417e-08  2.2427e-08  1.2048e-03  1.1948e-08  1.5157e-08  2.2821e-09  0:00:00    1
  2000  1.2283e-08  2.3272e-08  2.2291e-08  1.1969e-03  1.1879e-08  1.5067e-08  2.2682e-09  0:00:00    0

> 
adjoint/                parallel/               server/
define/                 parametric-study/       solve/
display/                plot/                   surface/
exit                    preferences/            turbo-workflow/
file/                   print-license-usage     views/
mesh/                   report/

> /file/write-case-data project1
Fast-loading "C:\PROGRA~1\ANSYSI~1\v231\fluent\fluent23.1.0\\addons\afd\lib\hdfio.bin"
Done.

Writing to Engs-30669:"C:\Users\kebl7595\Desktop\CFD\Runs\Viscous\21 degree\project1.cas.h5" in NODE0 mode and compression level 1 ...
       12996 cells,     1 zone  ...
       43722 faces,     8 zones ...
       17864 nodes,     1 zone  ...
  Done.
Done.

Writing to Engs-30669:"C:\Users\kebl7595\Desktop\CFD\Runs\Viscous\21 degree\project1.dat.h5" in NODE0 mode and compression level 1 ...
  Writing results.
Done.

> /file/export/ascii "./surface.dat" wing te () no pressure mach-number quit no

Writing "./surface.dat"...

Writing information to ascii file ...
Done.


> /report/forces/wall-forces y -0.35837 0.93358 0 y "Lift"

> /report/forces/wall-forces y 0.93358 0.35837 0 y "Drag"

> /exit

Posting ANSYS Product Improvement Program performance data 
Done.
Auto-Transcript Stop Time:  10:49:50, 21 May 2024 GMT Daylight Time 
Total Transcript Time: 5 Minute 26 Second.
