Auto-Transcript Start Time:  11:37:03, 22 May 2024 GMT Daylight Time 
Current Directory: "C:\Users\kebl7595\Desktop\CFD\Runs\Flap\Shallower Aspect Ratio\6 degrees"

              Welcome to ANSYS Fluent 2023 R1

              Copyright 1987-2023 ANSYS, Inc. All Rights Reserved.
              Unauthorized use, distribution or duplication is prohibited.
              This product is subject to U.S. laws governing export and re-export.
              For full Legal Notice, see documentation.

Build Time: Nov 28 2022 09:52:02 EST  Build Id: 10208  
 
Connected License Server List:	1055@ansyslic.eng.ox.ac.uk

*********************************************
Info: Your license enables 4-way parallel execution.
For faster simulations, please start the application with the appropriate parallel options.
*********************************************


     --------------------------------------------------------------
     This is an academic version of ANSYS FLUENT. Usage of this product
     license is limited to the terms and conditions specified in your ANSYS
     license form, additional terms section.
     --------------------------------------------------------------
Host spawning Node 0 on machine "Engs-30669" (win64).

------------------------------------------------------------------------------------
ID    Hostname    Core  O.S.         PID    Vendor                                 
------------------------------------------------------------------------------------
n0    Engs-30669  1/32  Windows-x64  34720  13th Gen Intel(R) Core(TM) i9-13900    
host  Engs-30669        Windows-x64  38724  13th Gen Intel(R) Core(TM) i9-13900    

MPI Option Selected: intel
------------------------------------------------------------------------------------

Cleanup script file is C:\\Users\\kebl7595\\Desktop\\CFD\\Runs\\Flap\\Shallower Aspect Ratio\\6 degrees\\cleanup-fluent-Engs-30669-38724.bat

Posting ANSYS Product Improvement Program startup data
Done.

Reading journal file C:/Users/kebl7595/Desktop/CFD/Runs/Flap/Shallower Aspect Ratio/6 degrees/project1.jou...

> /file/set-batch-options no no no 

> 
define/                 parametric-study/       solve/
display/                plot/                   surface/
exit                    preferences/            switch-to-meshing-mode
file/                   print-license-usage     turbo-workflow/
mesh/                   report/                 views/
parallel/               server/

> /file/import/cgns/mesh  "./project1.cgns"
Engs-30669 has other FLUENT parallel processes running.                       Process affinity not being set.

Importing "./project1.cgns"

Opening library "C:\\PROGRA~1\\ANSYSI~1\\v231\\fluent\\fluent23.1.0\\vki\\win64\\devtools4.4.6.dll"... done.

Read    26676 nodes
   19422 hexahedral cells, zone  1
   14118 quadrilateral wall faces, zone  2.
   50733 quadrilateral interior faces, zone  3.
     474 quadrilateral interface faces, zone  4.

Building...
     mesh
     materials,
     interface,
     domains,
     zones,
	interface-default_subface
	default_interior-1
	default_subface
	default
     parallel,
The automatic selection for flux type has changed to Rhie-Chow: momentum based.

Done.


> 
adjoint/                parallel/               server/
define/                 parametric-study/       solve/
display/                plot/                   surface/
exit                    preferences/            turbo-workflow/
file/                   print-license-usage     views/
mesh/                   report/

> /define/models/solver/density-based-implicit yes

> 
adjoint/                parallel/               server/
define/                 parametric-study/       solve/
display/                plot/                   surface/
exit                    preferences/            turbo-workflow/
file/                   print-license-usage     views/
mesh/                   report/

> /define/models/energy? yes yes invalid command [yes]
yes

> /define/models/viscous/kw-standard? yes

> 
adjoint/                parallel/               server/
define/                 parametric-study/       solve/
display/                plot/                   surface/
exit                    preferences/            turbo-workflow/
file/                   print-license-usage     views/
mesh/                   report/

> /define/materials/change-create air air air is a fluid
yes 
Density
ideal-gas no data required.

no no no no no no

> 
adjoint/                parallel/               server/
define/                 parametric-study/       solve/
display/                plot/                   surface/
exit                    preferences/            turbo-workflow/
file/                   print-license-usage     views/
mesh/                   report/

> /mesh/modify-zones/sep-face-zone-angle 2 90 yes

 6474 faces in contiguous region 0
 348 faces in contiguous region 1
 618 faces in contiguous region 2
 6474 faces in contiguous region 3
 204 faces in contiguous region 4
 Separates zone 2 into 5 zone(s).
Updating new zone information...
   created new zone default_subface:009 from default_subface
   created new zone default_subface:008 from default_subface
   created new zone default_subface:007 from default_subface
   created new zone default_subface:006 from default_subface
done.

> 
adjoint/                parallel/               server/
define/                 parametric-study/       solve/
display/                plot/                   surface/
exit                    preferences/            turbo-workflow/
file/                   print-license-usage     views/
mesh/                   report/

> /define/boundary-conditions/zone-name  6 wing

> /define/boundary-conditions/zone-name  2 sym1

> /define/boundary-conditions/zone-name  8 sym2

> 
adjoint/                parallel/               server/
define/                 parametric-study/       solve/
display/                plot/                   surface/
exit                    preferences/            turbo-workflow/
file/                   print-license-usage     views/
mesh/                   report/

> /define/boundary-conditions/zone-name  7 far1

> /define/boundary-conditions/zone-name 9 far2

> 
adjoint/                parallel/               server/
define/                 parametric-study/       solve/
display/                plot/                   surface/
exit                    preferences/            turbo-workflow/
file/                   print-license-usage     views/
mesh/                   report/

> /define/boundary-conditions/zone-type  7 pressure-far-field

> /define/boundary-conditions/zone-type 9 pressure-far-field

> /define/boundary-conditions/zone-type  2 symmetry

> /define/boundary-conditions/zone-type  8 symmetry

> 
adjoint/                parallel/               server/
define/                 parametric-study/       solve/
display/                plot/                   surface/
exit                    preferences/            turbo-workflow/
file/                   print-license-usage     views/
mesh/                   report/

> /define/boundary-conditions/pressure-far-field (far2 far1)
far1 no 0 no 0.1 no 300 yes no 0.99452 no -0.10453 no 0. no yes 5 0.02

> /define/boundary-conditions/pressure-far-field (far2 far1)
far2 no 0 no 0.1 no 300 yes no 0.99452 no -0.10453 no 0. no yes 5 0.02

> 
adjoint/                parallel/               server/
define/                 parametric-study/       solve/
display/                plot/                   surface/
exit                    preferences/            turbo-workflow/
file/                   print-license-usage     views/
mesh/                   report/

> /solve/initialize/compute-defaults/pressure-far-field (far2 far1)
far1

> /solve/initialize/initialize-flow

> 
adjoint/                parallel/               server/
define/                 parametric-study/       solve/
display/                plot/                   surface/
exit                    preferences/            turbo-workflow/
file/                   print-license-usage     views/
mesh/                   report/

> /solve/monitors/residual/convergence-criteria 1.e-9 1.e-9 1.e-9 1.e-9 1.e-9 1.e-9 1.e-9

> /solve/iterate 2000

  iter  continuity  x-velocity  y-velocity  z-velocity      energy           k       omega     time/iter
     1  1.0000e+00  1.0000e+00  1.0000e+00  1.0000e+00  1.0000e+00  5.5695e-02  4.9239e-02  0:00:00 1999
     2  5.3218e-01  5.5857e-01  4.7718e-01  1.0000e+00  5.3237e-01  4.9782e-02  3.9957e-02  0:00:00 1998
     3  2.8766e-01  3.1439e-01  2.9578e-01  9.6947e-01  2.8767e-01  4.4861e-02  3.5758e-02  0:00:00 1997
     4  1.7478e-01  1.6833e-01  2.1927e-01  8.2657e-01  1.7467e-01  4.0746e-02  3.2569e-02  0:33:16 1996
     5  1.3157e-01  1.0325e-01  1.7673e-01  8.5842e-01  1.3143e-01  3.7332e-02  3.0189e-02  0:26:36 1995
     6  1.1533e-01  7.5319e-02  1.5437e-01  9.2707e-01  1.1522e-01  3.4360e-02  2.8130e-02  0:21:16 1994
     7  1.0237e-01  6.1336e-02  1.4381e-01  9.7228e-01  1.0229e-01  3.1755e-02  2.6243e-02  0:17:00 1993
     8  9.5290e-02  5.5989e-02  1.3804e-01  9.7591e-01  9.5232e-02  2.9495e-02  2.4572e-02  0:13:36 1992
     9  8.5729e-02  4.9990e-02  1.3230e-01  9.6204e-01  8.5681e-02  2.7543e-02  2.3121e-02  0:10:52 1991
    10  8.0059e-02  4.9688e-02  1.2759e-01  9.7346e-01  8.0005e-02  2.5851e-02  2.1850e-02  0:08:42 1990
    11  7.3561e-02  4.9993e-02  1.2129e-01  9.4980e-01  7.3500e-02  2.4359e-02  2.0716e-02  0:06:57 1989

  iter  continuity  x-velocity  y-velocity  z-velocity      energy           k       omega     time/iter
    12  6.7257e-02  4.9949e-02  1.1411e-01  9.4511e-01  6.7191e-02  2.3040e-02  1.9700e-02  0:05:34 1988
    13  6.2057e-02  4.8251e-02  1.0805e-01  9.3628e-01  6.1981e-02  2.1882e-02  1.8796e-02  0:11:04 1987
    14  5.8340e-02  4.8106e-02  1.0152e-01  9.4277e-01  5.8265e-02  2.0889e-02  1.7998e-02  0:08:51 1986
    15  5.6524e-02  4.7647e-02  9.6529e-02  9.2495e-01  5.6446e-02  2.0008e-02  1.7287e-02  0:07:05 1985
    16  5.5647e-02  4.7897e-02  9.2567e-02  9.2694e-01  5.5568e-02  1.9235e-02  1.6650e-02  0:05:40 1984
    17  5.3154e-02  4.8458e-02  8.8921e-02  9.0811e-01  5.3076e-02  1.8535e-02  1.6067e-02  0:04:31 1983
    18  5.1094e-02  4.7739e-02  8.6096e-02  9.2459e-01  5.1018e-02  1.7919e-02  1.5540e-02  0:03:37 1982
    19  4.9853e-02  4.6368e-02  8.3226e-02  9.4403e-01  4.9779e-02  1.7375e-02  1.5061e-02  0:02:54 1981
    20  4.9077e-02  4.4320e-02  8.0186e-02  9.7457e-01  4.9000e-02  1.6884e-02  1.4591e-02  0:02:19 1980
    21  4.9714e-02  4.2444e-02  7.7646e-02  9.8199e-01  4.9635e-02  1.6449e-02  1.4216e-02  0:01:51 1979
    22  5.1186e-02  4.0782e-02  7.5266e-02  9.8367e-01  5.1105e-02  1.6063e-02  1.3889e-02  0:08:04 1978

  iter  continuity  x-velocity  y-velocity  z-velocity      energy           k       omega     time/iter
    23  5.1682e-02  3.8478e-02  7.3025e-02  1.0456e+00  5.1604e-02  1.5722e-02  1.3544e-02  0:06:27 1977
    24  5.2360e-02  3.5876e-02  7.0918e-02  1.0544e+00  5.2284e-02  1.5382e-02  1.3212e-02  0:05:10 1976
    25  5.4184e-02  3.3018e-02  6.9713e-02  1.0416e+00  5.4110e-02  1.5042e-02  1.2868e-02  0:04:08 1975
    26  5.5840e-02  3.1081e-02  7.0583e-02  1.0087e+00  5.5765e-02  1.4796e-02  1.2673e-02  0:03:18 1974
    27  5.7763e-02  2.9893e-02  7.2259e-02  9.5475e-01  5.7690e-02  1.4550e-02  1.2397e-02  0:02:38 1973
    28  6.0078e-02  2.8992e-02  7.4411e-02  8.9358e-01  6.0009e-02  1.4278e-02  1.2095e-02  0:02:07 1972
    29  6.1884e-02  2.8773e-02  7.7873e-02  8.2988e-01  6.1820e-02  1.3930e-02  1.1838e-02  0:01:41 1971
    30  6.0586e-02  2.8387e-02  8.0481e-02  8.1057e-01  6.0526e-02  1.3793e-02  1.1691e-02  0:07:55 1970
    31  5.8576e-02  2.8602e-02  8.2489e-02  7.2719e-01  5.8518e-02  1.3578e-02  1.1468e-02  0:06:20 1969
    32  5.6511e-02  2.8531e-02  8.2904e-02  6.8141e-01  5.6455e-02  1.3287e-02  1.1183e-02  0:05:04 1968
    33  5.2904e-02  2.8462e-02  8.2068e-02  6.4994e-01  5.2851e-02  1.3010e-02  1.0926e-02  0:04:03 1967

  iter  continuity  x-velocity  y-velocity  z-velocity      energy           k       omega     time/iter
    34  4.9481e-02  2.8340e-02  8.0320e-02  6.2231e-01  4.9431e-02  1.2779e-02  1.0731e-02  0:03:14 1966
    35  4.6131e-02  2.7880e-02  7.7154e-02  6.0169e-01  4.6082e-02  1.2526e-02  1.0508e-02  0:02:35 1965
    36  4.3398e-02  2.7581e-02  7.2939e-02  5.8687e-01  4.3351e-02  1.2249e-02  1.0262e-02  0:02:04 1964
    37  4.0559e-02  2.7136e-02  6.8900e-02  5.5407e-01  4.0511e-02  1.1957e-02  1.0005e-02  0:01:39 1963
    38  3.7732e-02  2.6409e-02  6.4843e-02  5.2542e-01  3.7682e-02  1.1665e-02  9.7766e-03  0:01:19 1962
    39  3.5899e-02  2.5274e-02  6.0964e-02  4.9289e-01  3.5847e-02  1.1408e-02  9.5245e-03  0:07:36 1961
    40  3.5194e-02  2.4604e-02  5.7556e-02  4.6040e-01  3.5142e-02  1.1117e-02  9.2666e-03  0:06:04 1960
    41  3.4259e-02  2.4294e-02  5.4359e-02  4.3369e-01  3.4209e-02  1.0833e-02  9.0214e-03  0:04:51 1959
    42  3.4672e-02  2.3522e-02  5.2161e-02  4.1163e-01  3.4624e-02  1.0567e-02  8.7532e-03  0:03:53 1958
    43  3.5694e-02  2.2527e-02  5.0321e-02  4.0104e-01  3.5648e-02  1.0315e-02  8.5057e-03  0:03:06 1957
    44  3.6399e-02  2.2210e-02  4.9212e-02  3.9575e-01  3.6355e-02  1.0070e-02  8.2867e-03  0:02:29 1956

  iter  continuity  x-velocity  y-velocity  z-velocity      energy           k       omega     time/iter
    45  3.7103e-02  2.1804e-02  4.9044e-02  4.0535e-01  3.7063e-02  9.8755e-03  8.0447e-03  0:01:59 1955
    46  3.7177e-02  2.2537e-02  4.8384e-02  4.2932e-01  3.7141e-02  9.6855e-03  7.8958e-03  0:01:35 1954
    47  3.6783e-02  2.3238e-02  4.8145e-02  4.6575e-01  3.6750e-02  9.5502e-03  7.7244e-03  0:01:16 1953
    48  3.6183e-02  2.4179e-02  4.8302e-02  5.1286e-01  3.6153e-02  9.4289e-03  7.5988e-03  0:01:01 1952
    49  3.5816e-02  2.5313e-02  4.8691e-02  5.6863e-01  3.5789e-02  9.3736e-03  7.4838e-03  0:07:19 1951
    50  3.4569e-02  2.6324e-02  4.8837e-02  6.3418e-01  3.4542e-02  9.2768e-03  7.3963e-03  0:05:51 1950
    51  3.3770e-02  2.7214e-02  4.9262e-02  6.9812e-01  3.3744e-02  9.1626e-03  7.2878e-03  0:04:41 1949
    52  3.2859e-02  2.8219e-02  4.9434e-02  7.5342e-01  3.2834e-02  9.1086e-03  7.2349e-03  0:03:44 1948
    53  3.2067e-02  2.8137e-02  4.9422e-02  8.0415e-01  3.2042e-02  9.0004e-03  7.1387e-03  0:02:59 1947
    54  3.2043e-02  2.8053e-02  4.9191e-02  8.4918e-01  3.2019e-02  8.9343e-03  7.0707e-03  0:02:23 1946
    55  3.2288e-02  2.7378e-02  4.8543e-02  8.7479e-01  3.2263e-02  8.8313e-03  7.0480e-03  0:01:55 1945

  iter  continuity  x-velocity  y-velocity  z-velocity      energy           k       omega     time/iter
    56  3.3474e-02  2.6209e-02  4.7866e-02  9.1627e-01  3.3450e-02  8.7589e-03  6.9557e-03  0:01:32 1944
    57  3.5131e-02  2.4968e-02  4.7303e-02  9.5094e-01  3.5108e-02  8.6613e-03  6.8832e-03  0:01:13 1943
    58  3.7038e-02  2.3753e-02  4.7372e-02  9.7483e-01  3.7018e-02  8.6057e-03  6.8133e-03  0:07:27 1942
    59  3.8983e-02  2.2619e-02  4.7636e-02  9.6838e-01  3.8965e-02  8.5534e-03  6.7788e-03  0:05:57 1941
    60  4.1458e-02  2.1625e-02  4.8380e-02  9.6790e-01  4.1442e-02  8.5492e-03  6.7302e-03  0:04:46 1940
    61  4.3825e-02  2.1005e-02  4.9754e-02  9.6558e-01  4.3810e-02  8.5862e-03  6.6794e-03  0:03:49 1939
    62  4.6403e-02  2.0617e-02  5.2057e-02  9.5543e-01  4.6389e-02  8.6413e-03  6.6290e-03  0:03:03 1938
    63  4.8518e-02  2.0775e-02  5.4929e-02  9.3620e-01  4.8505e-02  8.6616e-03  6.5446e-03  0:02:26 1937
    64  4.9859e-02  2.0976e-02  5.7964e-02  8.7665e-01  4.9848e-02  8.6063e-03  6.4822e-03  0:01:57 1936
    65  5.0133e-02  2.1127e-02  6.0941e-02  8.2319e-01  5.0123e-02  8.6238e-03  6.4402e-03  0:01:33 1935
    66  4.9549e-02  2.1555e-02  6.3660e-02  8.3965e-01  4.9537e-02  8.6646e-03  6.3976e-03  0:01:15 1934

  iter  continuity  x-velocity  y-velocity  z-velocity      energy           k       omega     time/iter
    67  4.8032e-02  2.1995e-02  6.5855e-02  8.1429e-01  4.8018e-02  8.6434e-03  6.3508e-03  0:01:00 1933
    68  4.6181e-02  2.2283e-02  6.7384e-02  7.8616e-01  4.6165e-02  8.4983e-03  6.3140e-03  0:07:14 1932
    69  4.4052e-02  2.2286e-02  6.7773e-02  7.6292e-01  4.4033e-02  8.3747e-03  6.2824e-03  0:05:47 1931
    70  4.2727e-02  2.2386e-02  6.6710e-02  7.0874e-01  4.2707e-02  8.2294e-03  6.2394e-03  0:04:38 1930
    71  4.1165e-02  2.2204e-02  6.4401e-02  6.6364e-01  4.1142e-02  8.1190e-03  6.2210e-03  0:03:42 1929
    72  4.1051e-02  2.1825e-02  6.1648e-02  6.3581e-01  4.1026e-02  7.9900e-03  6.1771e-03  0:02:57 1928
    73  4.0958e-02  2.1491e-02  5.8737e-02  6.0375e-01  4.0933e-02  7.8318e-03  6.0944e-03  0:02:22 1927
    74  4.1112e-02  2.1556e-02  5.5318e-02  5.7471e-01  4.1086e-02  7.6418e-03  6.0091e-03  0:01:53 1926
    75  4.2379e-02  2.1042e-02  5.3027e-02  5.5652e-01  4.2352e-02  7.5158e-03  5.9137e-03  0:01:31 1925
    76  4.4172e-02  2.0918e-02  5.1596e-02  5.5544e-01  4.4147e-02  7.3995e-03  5.8045e-03  0:01:13 1924
    77  4.4654e-02  2.0802e-02  4.9627e-02  5.6537e-01  4.4629e-02  7.3078e-03  5.6784e-03  0:07:23 1923

  iter  continuity  x-velocity  y-velocity  z-velocity      energy           k       omega     time/iter
    78  4.5003e-02  2.0625e-02  4.8918e-02  5.8601e-01  4.4976e-02  7.2391e-03  5.5829e-03  0:05:54 1922
    79  4.3913e-02  2.0725e-02  4.9033e-02  6.1267e-01  4.3883e-02  7.1464e-03  5.4961e-03  0:04:43 1921
    80  4.1863e-02  2.1062e-02  4.9475e-02  6.3921e-01  4.1835e-02  7.0778e-03  5.4100e-03  0:03:46 1920
    81  3.8932e-02  2.1693e-02  4.9926e-02  6.8310e-01  3.8903e-02  7.0466e-03  5.3747e-03  0:03:01 1919
    82  3.6098e-02  2.2686e-02  5.0027e-02  7.4185e-01  3.6069e-02  6.9836e-03  5.3448e-03  0:02:25 1918
    83  3.4900e-02  2.3109e-02  5.0205e-02  8.0547e-01  3.4870e-02  6.9605e-03  5.3112e-03  0:01:56 1917
    84  3.4914e-02  2.3571e-02  5.0241e-02  8.7620e-01  3.4888e-02  6.9039e-03  5.2874e-03  0:01:32 1916
    85  3.6219e-02  2.3752e-02  4.9417e-02  9.5484e-01  3.6196e-02  6.8660e-03  5.2754e-03  0:01:14 1915
    86  3.7389e-02  2.3619e-02  4.8558e-02  1.0327e+00  3.7366e-02  6.8307e-03  5.2521e-03  0:07:22 1914
    87  3.9075e-02  2.3217e-02  4.7738e-02  1.1078e+00  3.9053e-02  6.8295e-03  5.3134e-03  0:05:53 1913
    88  4.0707e-02  2.2528e-02  4.6571e-02  1.1585e+00  4.0687e-02  6.7701e-03  5.3123e-03  0:04:43 1912

  iter  continuity  x-velocity  y-velocity  z-velocity      energy           k       omega     time/iter
    89  4.2772e-02  2.2054e-02  4.5513e-02  1.1981e+00  4.2753e-02  6.7864e-03  5.3120e-03  0:03:46 1911
    90  4.4291e-02  2.1370e-02  4.4917e-02  1.2260e+00  4.4273e-02  6.7993e-03  5.2952e-03  0:03:01 1910
    91  4.4852e-02  2.0563e-02  4.4643e-02  1.2314e+00  4.4835e-02  6.7487e-03  5.2372e-03  0:02:24 1909
    92  4.4381e-02  1.9920e-02  4.4666e-02  1.2374e+00  4.4365e-02  6.7059e-03  5.1688e-03  0:01:55 1908
    93  4.2830e-02  1.9117e-02  4.4956e-02  1.2370e+00  4.2814e-02  6.6304e-03  5.1500e-03  0:01:32 1907
    94  4.0514e-02  1.8529e-02  4.4955e-02  1.2416e+00  4.0498e-02  6.6168e-03  5.0926e-03  0:01:14 1906
    95  3.7802e-02  1.7976e-02  4.4880e-02  1.2380e+00  3.7787e-02  6.5051e-03  5.0670e-03  0:00:59 1905
    96  3.5568e-02  1.7565e-02  4.4410e-02  1.2345e+00  3.5553e-02  6.3716e-03  4.9394e-03  0:07:08 1904
    97  3.3385e-02  1.7211e-02  4.3113e-02  1.2240e+00  3.3371e-02  6.2823e-03  4.8991e-03  0:05:42 1903
    98  3.1652e-02  1.6760e-02  4.1288e-02  1.2070e+00  3.1639e-02  6.1157e-03  4.8274e-03  0:04:34 1902
    99  3.1214e-02  1.6567e-02  3.9103e-02  1.1864e+00  3.1201e-02  5.9911e-03  4.7468e-03  0:03:39 1901

  iter  continuity  x-velocity  y-velocity  z-velocity      energy           k       omega     time/iter
   100  3.0996e-02  1.6254e-02  3.6887e-02  1.1613e+00  3.0982e-02  5.8577e-03  4.6110e-03  0:02:55 1900
   101  3.1257e-02  1.5909e-02  3.4662e-02  1.1321e+00  3.1242e-02  5.7610e-03  4.5230e-03  0:02:20 1899
   102  3.2016e-02  1.5602e-02  3.2577e-02  1.0995e+00  3.2001e-02  5.6079e-03  4.3963e-03  0:01:52 1898
   103  3.2977e-02  1.5106e-02  3.0781e-02  1.0673e+00  3.2961e-02  5.4952e-03  4.2712e-03  0:01:29 1897
   104  3.3975e-02  1.4810e-02  2.9691e-02  1.0327e+00  3.3957e-02  5.3596e-03  4.1626e-03  0:07:31 1896
   105  3.3940e-02  1.4631e-02  2.8836e-02  9.9401e-01  3.3923e-02  5.2917e-03  4.0603e-03  0:06:00 1895
   106  3.2686e-02  1.4664e-02  2.8394e-02  9.5412e-01  3.2668e-02  5.2262e-03  3.9812e-03  0:04:48 1894
   107  3.0732e-02  1.4713e-02  2.8139e-02  9.1665e-01  3.0714e-02  5.1364e-03  3.9071e-03  0:03:50 1893
   108  2.8386e-02  1.4704e-02  2.8161e-02  8.8209e-01  2.8368e-02  5.0557e-03  3.8544e-03  0:03:04 1892
   109  2.6541e-02  1.4698e-02  2.7977e-02  8.5202e-01  2.6524e-02  4.9926e-03  3.8193e-03  0:02:27 1891
   110  2.6087e-02  1.4704e-02  2.7402e-02  8.2559e-01  2.6071e-02  4.9588e-03  3.7778e-03  0:01:58 1890

  iter  continuity  x-velocity  y-velocity  z-velocity      energy           k       omega     time/iter
   111  2.6404e-02  1.4583e-02  2.6812e-02  8.0044e-01  2.6389e-02  4.8884e-03  3.7569e-03  0:01:34 1889
   112  2.7541e-02  1.4369e-02  2.6247e-02  7.8032e-01  2.7525e-02  4.8435e-03  3.7583e-03  0:01:15 1888
   113  2.8791e-02  1.4021e-02  2.5770e-02  7.6688e-01  2.8775e-02  4.8197e-03  3.7671e-03  0:07:18 1887
   114  3.0178e-02  1.3638e-02  2.5096e-02  7.5277e-01  3.0162e-02  4.7804e-03  3.7582e-03  0:05:50 1886
   115  3.1684e-02  1.3189e-02  2.4669e-02  7.3299e-01  3.1668e-02  4.7600e-03  3.7389e-03  0:04:40 1885
   116  3.2826e-02  1.2746e-02  2.4566e-02  7.0957e-01  3.2809e-02  4.7476e-03  3.7366e-03  0:03:44 1884
   117  3.2856e-02  1.2361e-02  2.4538e-02  6.8921e-01  3.2840e-02  4.7264e-03  3.7064e-03  0:02:59 1883
   118  3.2192e-02  1.1997e-02  2.4713e-02  6.6370e-01  3.2176e-02  4.6885e-03  3.6444e-03  0:02:23 1882
   119  3.0860e-02  1.1621e-02  2.5225e-02  6.3455e-01  3.0844e-02  4.6863e-03  3.6266e-03  0:01:54 1881
   120  2.8994e-02  1.1339e-02  2.5367e-02  6.0269e-01  2.8979e-02  4.6210e-03  3.5976e-03  0:07:47 1880
   121  2.7814e-02  1.1098e-02  2.5480e-02  5.6116e-01  2.7800e-02  4.5630e-03  3.6074e-03  0:06:14 1879

  iter  continuity  x-velocity  y-velocity  z-velocity      energy           k       omega     time/iter
   122  2.6612e-02  1.0872e-02  2.4901e-02  5.1570e-01  2.6599e-02  4.4809e-03  3.5501e-03  0:04:59 1878
   123  2.5930e-02  1.0683e-02  2.4051e-02  4.8301e-01  2.5916e-02  4.4330e-03  3.5232e-03  0:03:59 1877
   124  2.5588e-02  1.0586e-02  2.3000e-02  4.6212e-01  2.5575e-02  4.3445e-03  3.4402e-03  0:03:11 1876
   125  2.5497e-02  1.0523e-02  2.1733e-02  4.4498e-01  2.5485e-02  4.2587e-03  3.3592e-03  0:02:33 1875
   126  2.5840e-02  1.0391e-02  2.0566e-02  4.3638e-01  2.5827e-02  4.1902e-03  3.2757e-03  0:02:02 1874
   127  2.6050e-02  1.0406e-02  1.9723e-02  4.3477e-01  2.6036e-02  4.0839e-03  3.1777e-03  0:01:38 1873
   128  2.5871e-02  1.0423e-02  1.8988e-02  4.4035e-01  2.5857e-02  4.0511e-03  3.1505e-03  0:07:32 1872
   129  2.5234e-02  1.0457e-02  1.8549e-02  4.5033e-01  2.5220e-02  3.9647e-03  3.0594e-03  0:06:02 1871
   130  2.3483e-02  1.0473e-02  1.8338e-02  4.6750e-01  2.3468e-02  3.8924e-03  3.0046e-03  0:04:49 1870
   131  2.1073e-02  1.0630e-02  1.8266e-02  4.9305e-01  2.1058e-02  3.8692e-03  3.0030e-03  0:03:51 1869
   132  1.9334e-02  1.0765e-02  1.8116e-02  5.2429e-01  1.9320e-02  3.8214e-03  2.9710e-03  0:03:05 1868

  iter  continuity  x-velocity  y-velocity  z-velocity      energy           k       omega     time/iter
   133  1.8828e-02  1.0851e-02  1.7965e-02  5.5807e-01  1.8813e-02  3.8135e-03  2.9761e-03  0:02:28 1867
   134  1.9898e-02  1.0852e-02  1.7863e-02  5.9227e-01  1.9883e-02  3.7791e-03  2.9835e-03  0:01:58 1866
   135  2.1306e-02  1.0816e-02  1.7708e-02  6.2709e-01  2.1291e-02  3.7968e-03  2.9579e-03  0:01:35 1865
   136  2.2999e-02  1.0720e-02  1.7569e-02  6.6494e-01  2.2983e-02  3.8129e-03  2.9564e-03  0:07:28 1864
   137  2.4871e-02  1.0555e-02  1.7443e-02  7.0368e-01  2.4854e-02  3.8227e-03  2.9910e-03  0:05:59 1863
   138  2.6048e-02  1.0350e-02  1.7449e-02  7.3798e-01  2.6031e-02  3.8277e-03  2.9855e-03  0:04:47 1862
   139  2.7009e-02  1.0174e-02  1.7444e-02  7.6937e-01  2.6991e-02  3.8580e-03  3.0009e-03  0:03:49 1861
   140  2.7149e-02  1.0016e-02  1.7484e-02  7.9753e-01  2.7131e-02  3.8475e-03  2.9774e-03  0:03:03 1860
   141  2.6520e-02  9.8227e-03  1.7920e-02  8.1992e-01  2.6502e-02  3.8809e-03  2.9675e-03  0:02:27 1859
   142  2.5569e-02  9.5945e-03  1.8305e-02  8.3995e-01  2.5551e-02  3.8869e-03  2.9778e-03  0:01:57 1858
   143  2.3730e-02  9.4833e-03  1.8428e-02  8.4602e-01  2.3713e-02  3.8912e-03  2.9584e-03  0:01:34 1857

  iter  continuity  x-velocity  y-velocity  z-velocity      energy           k       omega     time/iter
   144  2.2313e-02  9.3368e-03  1.8484e-02  8.4643e-01  2.2297e-02  3.8563e-03  2.9455e-03  0:07:26 1856
   145  2.0755e-02  9.0739e-03  1.8309e-02  8.4201e-01  2.0740e-02  3.8582e-03  2.9199e-03  0:05:57 1855
   146  2.0270e-02  8.8970e-03  1.7829e-02  8.3834e-01  2.0255e-02  3.8387e-03  2.9070e-03  0:04:45 1854
   147  1.9782e-02  8.7424e-03  1.7258e-02  8.3226e-01  1.9768e-02  3.7989e-03  2.8694e-03  0:03:48 1853
   148  2.0088e-02  8.4618e-03  1.6542e-02  8.2389e-01  2.0074e-02  3.7567e-03  2.7987e-03  0:03:02 1852
   149  2.0316e-02  8.3196e-03  1.5795e-02  8.1243e-01  2.0302e-02  3.7053e-03  2.7291e-03  0:02:26 1851
   150  2.0589e-02  8.1763e-03  1.5163e-02  7.9897e-01  2.0575e-02  3.6896e-03  2.6867e-03  0:01:57 1850
   151  2.1018e-02  8.0299e-03  1.4605e-02  7.8373e-01  2.1004e-02  3.6575e-03  2.6023e-03  0:01:33 1849
   152  2.1291e-02  7.9882e-03  1.4282e-02  7.6581e-01  2.1276e-02  3.5870e-03  2.5168e-03  0:01:15 1848
   153  2.0700e-02  8.0070e-03  1.4193e-02  7.4717e-01  2.0685e-02  3.5845e-03  2.4698e-03  0:07:09 1847
   154  1.9348e-02  8.1827e-03  1.4117e-02  7.2726e-01  1.9333e-02  3.5575e-03  2.4450e-03  0:05:43 1846

  iter  continuity  x-velocity  y-velocity  z-velocity      energy           k       omega     time/iter
   155  1.7667e-02  8.3145e-03  1.4097e-02  7.0700e-01  1.7652e-02  3.5257e-03  2.4209e-03  0:04:34 1845
   156  1.6542e-02  8.3999e-03  1.4187e-02  6.8850e-01  1.6528e-02  3.5233e-03  2.4052e-03  0:03:39 1844
   157  1.6285e-02  8.4714e-03  1.4218e-02  6.7139e-01  1.6271e-02  3.5192e-03  2.4092e-03  0:02:55 1843
   158  1.6537e-02  8.5555e-03  1.4117e-02  6.5423e-01  1.6524e-02  3.5325e-03  2.4089e-03  0:02:20 1842
   159  1.7469e-02  8.5524e-03  1.4028e-02  6.3886e-01  1.7455e-02  3.5392e-03  2.4084e-03  0:01:52 1841
   160  1.9173e-02  8.4693e-03  1.3879e-02  6.2510e-01  1.9158e-02  3.5624e-03  2.4090e-03  0:01:30 1840
   161  2.0781e-02  8.3870e-03  1.3713e-02  6.1323e-01  2.0766e-02  3.5961e-03  2.4151e-03  0:07:19 1839
   162  2.2353e-02  8.2230e-03  1.3630e-02  6.0330e-01  2.2336e-02  3.6266e-03  2.4372e-03  0:05:51 1838
   163  2.3272e-02  8.0486e-03  1.3499e-02  5.9691e-01  2.3255e-02  3.6219e-03  2.4248e-03  0:04:41 1837
   164  2.3512e-02  7.9178e-03  1.3675e-02  5.8403e-01  2.3495e-02  3.6741e-03  2.4255e-03  0:03:45 1836
   165  2.3499e-02  7.7344e-03  1.3817e-02  5.7668e-01  2.3483e-02  3.6995e-03  2.4259e-03  0:03:00 1835

  iter  continuity  x-velocity  y-velocity  z-velocity      energy           k       omega     time/iter
   166  2.2457e-02  7.5940e-03  1.4003e-02  5.5509e-01  2.2441e-02  3.6966e-03  2.4056e-03  0:02:24 1834
   167  2.1046e-02  7.4762e-03  1.4070e-02  5.3234e-01  2.1032e-02  3.7080e-03  2.3963e-03  0:01:55 1833
   168  1.9367e-02  7.2931e-03  1.3996e-02  5.0715e-01  1.9354e-02  3.6960e-03  2.3918e-03  0:07:38 1832
   169  1.8752e-02  7.1684e-03  1.3795e-02  4.8123e-01  1.8740e-02  3.6877e-03  2.3831e-03  0:06:06 1831
   170  1.8512e-02  7.0866e-03  1.3575e-02  4.5315e-01  1.8500e-02  3.6490e-03  2.3400e-03  0:04:53 1830
   171  1.8780e-02  6.9579e-03  1.3052e-02  4.2788e-01  1.8768e-02  3.6201e-03  2.2972e-03  0:03:54 1829
   172  1.9589e-02  6.9041e-03  1.2650e-02  4.0342e-01  1.9577e-02  3.5842e-03  2.2435e-03  0:03:07 1828
   173  2.0212e-02  6.9045e-03  1.2289e-02  3.8565e-01  2.0200e-02  3.5371e-03  2.2104e-03  0:02:30 1827
   174  2.0629e-02  6.9309e-03  1.1994e-02  3.7161e-01  2.0617e-02  3.5064e-03  2.1757e-03  0:02:00 1826
   175  2.0645e-02  6.9851e-03  1.1899e-02  3.5886e-01  2.0632e-02  3.4468e-03  2.1190e-03  0:01:36 1825
   176  1.9931e-02  7.1278e-03  1.2028e-02  3.5149e-01  1.9919e-02  3.4279e-03  2.0917e-03  0:07:21 1824

  iter  continuity  x-velocity  y-velocity  z-velocity      energy           k       omega     time/iter
   177  1.8626e-02  7.2913e-03  1.2190e-02  3.4942e-01  1.8614e-02  3.3988e-03  2.0858e-03  0:05:53 1823
   178  1.7365e-02  7.5412e-03  1.2362e-02  3.5230e-01  1.7353e-02  3.3713e-03  2.0637e-03  0:04:42 1822
   179  1.6375e-02  7.6851e-03  1.2506e-02  3.5933e-01  1.6364e-02  3.3690e-03  2.0712e-03  0:03:46 1821
   180  1.6584e-02  7.7750e-03  1.2652e-02  3.7194e-01  1.6572e-02  3.3534e-03  2.0877e-03  0:03:00 1820
   181  1.6983e-02  7.8287e-03  1.2726e-02  3.8549e-01  1.6970e-02  3.3504e-03  2.0954e-03  0:02:24 1819
   182  1.8068e-02  7.8172e-03  1.2854e-02  4.0556e-01  1.8054e-02  3.3576e-03  2.1061e-03  0:01:55 1818
   183  2.0129e-02  7.7994e-03  1.2861e-02  4.3083e-01  2.0113e-02  3.3775e-03  2.1154e-03  0:01:32 1817
   184  2.1902e-02  7.6907e-03  1.2933e-02  4.5573e-01  2.1885e-02  3.4010e-03  2.1327e-03  0:07:17 1816
   185  2.3903e-02  7.5918e-03  1.3084e-02  4.7740e-01  2.3885e-02  3.4263e-03  2.1433e-03  0:05:49 1815
   186  2.5502e-02  7.5223e-03  1.3173e-02  5.0281e-01  2.5484e-02  3.4235e-03  2.1578e-03  0:04:39 1814
   187  2.5881e-02  7.5044e-03  1.3560e-02  5.1988e-01  2.5862e-02  3.4504e-03  2.1627e-03  0:03:43 1813

  iter  continuity  x-velocity  y-velocity  z-velocity      energy           k       omega     time/iter
   188  2.5792e-02  7.5853e-03  1.4051e-02  5.3685e-01  2.5773e-02  3.4668e-03  2.1638e-03  0:02:59 1812
   189  2.4928e-02  7.6268e-03  1.4443e-02  5.4484e-01  2.4909e-02  3.4623e-03  2.1730e-03  0:02:23 1811
   190  2.3451e-02  7.5773e-03  1.4670e-02  5.4028e-01  2.3434e-02  3.4419e-03  2.1389e-03  0:01:54 1810
   191  2.1585e-02  7.5315e-03  1.4682e-02  5.2900e-01  2.1569e-02  3.4245e-03  2.1402e-03  0:01:31 1809
   192  1.9899e-02  7.4178e-03  1.4640e-02  5.0788e-01  1.9884e-02  3.3668e-03  2.1185e-03  0:07:15 1808
   193  1.8480e-02  7.2676e-03  1.4356e-02  5.1484e-01  1.8467e-02  3.3240e-03  2.0874e-03  0:05:47 1807
   194  1.7728e-02  7.0588e-03  1.3961e-02  4.9156e-01  1.7715e-02  3.2516e-03  2.0477e-03  0:04:38 1806
   195  1.7554e-02  6.9022e-03  1.3541e-02  4.8512e-01  1.7542e-02  3.1848e-03  2.0001e-03  0:03:42 1805
   196  1.7893e-02  6.7076e-03  1.3007e-02  4.8566e-01  1.7881e-02  3.1116e-03  1.9514e-03  0:02:58 1804
   197  1.8559e-02  6.5427e-03  1.2691e-02  4.7394e-01  1.8547e-02  3.0465e-03  1.9150e-03  0:02:22 1803
   198  1.9201e-02  6.5278e-03  1.2357e-02  4.5492e-01  1.9188e-02  2.9718e-03  1.8625e-03  0:01:54 1802

  iter  continuity  x-velocity  y-velocity  z-velocity      energy           k       omega     time/iter
   199  1.9888e-02  6.6639e-03  1.2121e-02  4.4735e-01  1.9875e-02  2.9097e-03  1.8210e-03  0:07:31 1801
   200  2.0112e-02  6.8348e-03  1.2041e-02  4.5011e-01  2.0098e-02  2.8743e-03  1.8001e-03  0:06:01 1800
   201  1.9949e-02  7.0678e-03  1.2123e-02  4.5407e-01  1.9934e-02  2.8187e-03  1.7751e-03  0:04:48 1799
   202  1.9318e-02  7.3838e-03  1.2415e-02  4.6016e-01  1.9303e-02  2.7957e-03  1.7644e-03  0:03:51 1798
   203  1.7884e-02  7.6221e-03  1.2649e-02  4.6807e-01  1.7868e-02  2.7692e-03  1.7554e-03  0:03:04 1797
   204  1.6698e-02  7.9777e-03  1.2919e-02  4.8164e-01  1.6683e-02  2.7369e-03  1.7674e-03  0:02:27 1796
   205  1.5630e-02  8.1593e-03  1.3081e-02  4.9622e-01  1.5616e-02  2.7344e-03  1.7862e-03  0:01:58 1795
   206  1.5619e-02  8.2423e-03  1.3113e-02  5.1578e-01  1.5604e-02  2.7320e-03  1.7998e-03  0:01:34 1794
   207  1.6364e-02  8.2654e-03  1.3132e-02  5.3395e-01  1.6348e-02  2.7353e-03  1.8240e-03  0:07:14 1793
   208  1.7395e-02  8.2403e-03  1.3148e-02  5.6474e-01  1.7379e-02  2.7519e-03  1.8340e-03  0:05:47 1792
   209  1.8988e-02  8.1729e-03  1.3095e-02  6.0237e-01  1.8971e-02  2.7769e-03  1.8440e-03  0:04:37 1791

  iter  continuity  x-velocity  y-velocity  z-velocity      energy           k       omega     time/iter
   210  2.0927e-02  7.9814e-03  1.3168e-02  6.3150e-01  2.0910e-02  2.7770e-03  1.8586e-03  0:03:42 1790
   211  2.2733e-02  7.9109e-03  1.3215e-02  6.5884e-01  2.2714e-02  2.8034e-03  1.8676e-03  0:02:57 1789
   212  2.4199e-02  7.8479e-03  1.3272e-02  6.8961e-01  2.4181e-02  2.8211e-03  1.8945e-03  0:02:22 1788
   213  2.4826e-02  7.7838e-03  1.3649e-02  7.1698e-01  2.4808e-02  2.8306e-03  1.8722e-03  0:01:53 1787
   214  2.4624e-02  7.7027e-03  1.4215e-02  7.4502e-01  2.4606e-02  2.8226e-03  1.8818e-03  0:01:31 1786
   215  2.3591e-02  7.6213e-03  1.4534e-02  7.6267e-01  2.3575e-02  2.8152e-03  1.8515e-03  0:01:12 1785
   216  2.1841e-02  7.4616e-03  1.4843e-02  7.6291e-01  2.1827e-02  2.8020e-03  1.8579e-03  0:06:55 1784
   217  2.0097e-02  7.3617e-03  1.5068e-02  7.6082e-01  2.0084e-02  2.7897e-03  1.8574e-03  0:05:32 1783
   218  1.8403e-02  7.2121e-03  1.5009e-02  7.4483e-01  1.8391e-02  2.7543e-03  1.8493e-03  0:04:25 1782
   219  1.7942e-02  7.1137e-03  1.4824e-02  7.3245e-01  1.7931e-02  2.7240e-03  1.8403e-03  0:03:32 1781
   220  1.8003e-02  6.9787e-03  1.4566e-02  7.1959e-01  1.7992e-02  2.7013e-03  1.8296e-03  0:02:50 1780

  iter  continuity  x-velocity  y-velocity  z-velocity      energy           k       omega     time/iter
   221  1.8385e-02  6.8325e-03  1.4192e-02  6.9970e-01  1.8374e-02  2.6439e-03  1.7931e-03  0:02:16 1779
   222  1.9188e-02  6.7478e-03  1.3892e-02  6.8883e-01  1.9177e-02  2.5950e-03  1.7678e-03  0:01:48 1778
   223  1.9972e-02  6.7416e-03  1.3578e-02  6.6895e-01  1.9960e-02  2.5526e-03  1.7385e-03  0:01:27 1777
   224  2.0378e-02  6.7264e-03  1.3306e-02  6.5336e-01  2.0365e-02  2.4927e-03  1.7243e-03  0:07:04 1776
   225  2.0538e-02  6.7818e-03  1.3171e-02  6.4137e-01  2.0525e-02  2.4552e-03  1.7010e-03  0:05:39 1775
   226  2.0015e-02  6.9272e-03  1.3210e-02  6.3243e-01  2.0001e-02  2.4107e-03  1.6795e-03  0:04:31 1774
   227  1.9185e-02  7.1567e-03  1.3201e-02  6.2571e-01  1.9171e-02  2.3737e-03  1.6678e-03  0:03:37 1773
   228  1.7863e-02  7.3599e-03  1.3226e-02  6.2015e-01  1.7849e-02  2.3505e-03  1.6624e-03  0:02:53 1772
   229  1.6727e-02  7.5292e-03  1.3330e-02  6.1835e-01  1.6713e-02  2.3195e-03  1.6739e-03  0:02:19 1771
   230  1.5925e-02  7.6910e-03  1.3429e-02  6.2158e-01  1.5911e-02  2.3115e-03  1.6808e-03  0:01:51 1770
   231  1.5807e-02  7.8003e-03  1.3413e-02  6.2874e-01  1.5793e-02  2.3009e-03  1.6749e-03  0:01:29 1769

  iter  continuity  x-velocity  y-velocity  z-velocity      energy           k       omega     time/iter
   232  1.6109e-02  7.8236e-03  1.3361e-02  6.3393e-01  1.6094e-02  2.3004e-03  1.6915e-03  0:07:04 1768
   233  1.7275e-02  7.8060e-03  1.3238e-02  6.4318e-01  1.7259e-02  2.3001e-03  1.7040e-03  0:05:39 1767
   234  1.8228e-02  7.7598e-03  1.3130e-02  6.4734e-01  1.8212e-02  2.2930e-03  1.7176e-03  0:04:31 1766
   235  1.9204e-02  7.7013e-03  1.2875e-02  6.5228e-01  1.9187e-02  2.2989e-03  1.7182e-03  0:03:37 1765
   236  1.9846e-02  7.5549e-03  1.2709e-02  6.5611e-01  1.9829e-02  2.2913e-03  1.7221e-03  0:02:53 1764
   237  2.0030e-02  7.4235e-03  1.2625e-02  6.5174e-01  2.0013e-02  2.3113e-03  1.7089e-03  0:08:11 1763
   238  1.9789e-02  7.3376e-03  1.2510e-02  6.5981e-01  1.9773e-02  2.3139e-03  1.7268e-03  0:06:33 1762
   239  1.8880e-02  7.1766e-03  1.2410e-02  6.5092e-01  1.8866e-02  2.3213e-03  1.7111e-03  0:05:14 1761
   240  1.7640e-02  6.9328e-03  1.2296e-02  6.3634e-01  1.7626e-02  2.2894e-03  1.7066e-03  0:04:11 1760
   241  1.6485e-02  6.8008e-03  1.2103e-02  6.2804e-01  1.6473e-02  2.2915e-03  1.6935e-03  0:03:21 1759
   242  1.5094e-02  6.6103e-03  1.1906e-02  6.1526e-01  1.5084e-02  2.2956e-03  1.6979e-03  0:02:41 1758

  iter  continuity  x-velocity  y-velocity  z-velocity      energy           k       omega     time/iter
   243  1.4559e-02  6.4259e-03  1.1725e-02  5.9561e-01  1.4549e-02  2.2760e-03  1.6886e-03  0:02:08 1757
   244  1.4403e-02  6.3221e-03  1.1410e-02  5.8574e-01  1.4394e-02  2.2466e-03  1.6656e-03  0:07:34 1756
   245  1.4675e-02  6.1716e-03  1.1101e-02  5.6510e-01  1.4666e-02  2.2248e-03  1.6187e-03  0:06:03 1755
   246  1.5312e-02  6.0465e-03  1.0821e-02  5.4766e-01  1.5303e-02  2.1933e-03  1.6134e-03  0:04:50 1754
   247  1.5658e-02  5.9693e-03  1.0500e-02  5.2802e-01  1.5649e-02  2.1721e-03  1.5922e-03  0:03:52 1753
   248  1.5816e-02  5.9374e-03  1.0250e-02  5.1045e-01  1.5806e-02  2.1234e-03  1.5590e-03  0:03:05 1752
   249  1.5801e-02  5.9255e-03  1.0149e-02  4.9226e-01  1.5790e-02  2.0900e-03  1.5409e-03  0:02:28 1751
   250  1.5319e-02  5.9391e-03  1.0055e-02  4.7531e-01  1.5308e-02  2.0796e-03  1.5086e-03  0:01:59 1750
   251  1.4776e-02  6.0350e-03  1.0010e-02  4.6131e-01  1.4766e-02  2.0426e-03  1.5057e-03  0:01:35 1749
   252  1.4125e-02  6.0589e-03  1.0022e-02  4.5205e-01  1.4114e-02  2.0308e-03  1.5067e-03  0:07:05 1748
   253  1.3609e-02  6.0499e-03  9.9480e-03  4.4955e-01  1.3598e-02  2.0104e-03  1.4928e-03  0:05:40 1747

  iter  continuity  x-velocity  y-velocity  z-velocity      energy           k       omega     time/iter
   254  1.3166e-02  6.0950e-03  9.8360e-03  4.4145e-01  1.3155e-02  1.9845e-03  1.4808e-03  0:04:32 1746
   255  1.3158e-02  6.0507e-03  9.7375e-03  4.4048e-01  1.3147e-02  1.9911e-03  1.4718e-03  0:03:37 1745
   256  1.3779e-02  5.9476e-03  9.6104e-03  4.4260e-01  1.3767e-02  1.9741e-03  1.4720e-03  0:02:54 1744
   257  1.4672e-02  5.8300e-03  9.4930e-03  4.4777e-01  1.4660e-02  1.9482e-03  1.4578e-03  0:02:19 1743
   258  1.5417e-02  5.7269e-03  9.2810e-03  4.5523e-01  1.5405e-02  1.9386e-03  1.4603e-03  0:01:51 1742
   259  1.5832e-02  5.6266e-03  9.1482e-03  4.5684e-01  1.5820e-02  1.9290e-03  1.4679e-03  0:07:17 1741
   260  1.5893e-02  5.5108e-03  9.1370e-03  4.6110e-01  1.5881e-02  1.9252e-03  1.4398e-03  0:05:49 1740
   261  1.5705e-02  5.4123e-03  9.1301e-03  4.6266e-01  1.5694e-02  1.9211e-03  1.4174e-03  0:04:39 1739
   262  1.4895e-02  5.2610e-03  9.1115e-03  4.5737e-01  1.4884e-02  1.9022e-03  1.3915e-03  0:03:43 1738
   263  1.3952e-02  5.1287e-03  9.0198e-03  4.5450e-01  1.3942e-02  1.8884e-03  1.4016e-03  0:02:59 1737
   264  1.2929e-02  5.0335e-03  8.9325e-03  4.4371e-01  1.2921e-02  1.8708e-03  1.3752e-03  0:02:23 1736

  iter  continuity  x-velocity  y-velocity  z-velocity      energy           k       omega     time/iter
   265  1.2216e-02  4.8315e-03  8.8155e-03  4.3241e-01  1.2209e-02  1.8507e-03  1.3660e-03  0:01:54 1735
   266  1.1635e-02  4.7143e-03  8.6666e-03  4.2146e-01  1.1628e-02  1.8248e-03  1.3466e-03  0:01:31 1734
   267  1.1649e-02  4.5851e-03  8.4637e-03  4.1671e-01  1.1642e-02  1.8042e-03  1.3290e-03  0:07:00 1733
   268  1.2095e-02  4.4909e-03  8.2035e-03  4.0250e-01  1.2088e-02  1.7619e-03  1.3042e-03  0:05:35 1732
   269  1.2390e-02  4.3764e-03  7.9396e-03  4.0205e-01  1.2382e-02  1.7428e-03  1.2787e-03  0:04:28 1731
   270  1.2845e-02  4.3441e-03  7.6907e-03  3.8493e-01  1.2837e-02  1.7157e-03  1.2519e-03  0:03:34 1730
   271  1.2934e-02  4.2933e-03  7.5390e-03  3.6775e-01  1.2926e-02  1.6675e-03  1.2374e-03  0:02:51 1729
   272  1.2878e-02  4.2889e-03  7.4123e-03  3.5719e-01  1.2869e-02  1.6466e-03  1.2101e-03  0:02:17 1728
   273  1.2633e-02  4.3464e-03  7.2520e-03  3.5203e-01  1.2624e-02  1.6164e-03  1.1803e-03  0:01:50 1727
   274  1.2299e-02  4.3858e-03  7.2054e-03  3.4599e-01  1.2290e-02  1.5854e-03  1.1764e-03  0:07:13 1726
   275  1.1666e-02  4.4096e-03  7.1611e-03  3.4192e-01  1.1658e-02  1.5651e-03  1.1673e-03  0:05:46 1725

  iter  continuity  x-velocity  y-velocity  z-velocity      energy           k       omega     time/iter
   276  1.1336e-02  4.4348e-03  7.0729e-03  3.3589e-01  1.1327e-02  1.5477e-03  1.1476e-03  0:04:37 1724
   277  1.1402e-02  4.4253e-03  6.9192e-03  3.3363e-01  1.1393e-02  1.5334e-03  1.1438e-03  0:03:41 1723
   278  1.1710e-02  4.3898e-03  6.7922e-03  3.3280e-01  1.1701e-02  1.5192e-03  1.1458e-03  0:02:57 1722
   279  1.1972e-02  4.3117e-03  6.7315e-03  3.3768e-01  1.1963e-02  1.5122e-03  1.1243e-03  0:02:21 1721
   280  1.2225e-02  4.2516e-03  6.5300e-03  3.4035e-01  1.2216e-02  1.5048e-03  1.1251e-03  0:01:53 1720
   281  1.2377e-02  4.1572e-03  6.4340e-03  3.3779e-01  1.2368e-02  1.5026e-03  1.1229e-03  0:07:14 1719
   282  1.2328e-02  4.0682e-03  6.3907e-03  3.3884e-01  1.2319e-02  1.4963e-03  1.1060e-03  0:05:47 1718
   283  1.1918e-02  4.0018e-03  6.3335e-03  3.3487e-01  1.1910e-02  1.4880e-03  1.0851e-03  0:04:38 1717
   284  1.1338e-02  3.8774e-03  6.3136e-03  3.2930e-01  1.1331e-02  1.4902e-03  1.0708e-03  0:03:42 1716
   285  1.0660e-02  3.7909e-03  6.2644e-03  3.2608e-01  1.0653e-02  1.4826e-03  1.0745e-03  0:02:57 1715
   286  1.0021e-02  3.7152e-03  6.1846e-03  3.1601e-01  1.0015e-02  1.4793e-03  1.0410e-03  0:02:22 1714

  iter  continuity  x-velocity  y-velocity  z-velocity      energy           k       omega     time/iter
   287  9.5237e-03  3.5820e-03  6.0767e-03  3.0890e-01  9.5178e-03  1.4717e-03  1.0465e-03  0:01:53 1713
   288  9.2573e-03  3.4777e-03  5.9793e-03  3.0280e-01  9.2515e-03  1.4674e-03  1.0409e-03  0:07:13 1712
   289  9.3726e-03  3.4138e-03  5.8420e-03  2.9564e-01  9.3668e-03  1.4566e-03  1.0291e-03  0:05:46 1711
   290  9.5768e-03  3.3284e-03  5.6615e-03  2.8762e-01  9.5708e-03  1.4408e-03  1.0125e-03  0:04:37 1710
   291  9.9080e-03  3.2571e-03  5.5120e-03  2.8308e-01  9.9018e-03  1.4301e-03  1.0003e-03  0:03:41 1709
   292  1.0137e-02  3.1904e-03  5.3847e-03  2.7526e-01  1.0130e-02  1.4232e-03  1.0041e-03  0:02:57 1708
   293  1.0167e-02  3.1481e-03  5.2341e-03  2.6991e-01  1.0160e-02  1.4090e-03  9.8058e-04  0:02:21 1707
   294  1.0098e-02  3.1412e-03  5.1328e-03  2.6251e-01  1.0091e-02  1.3913e-03  9.6743e-04  0:01:53 1706
   295  9.8360e-03  3.1543e-03  5.0544e-03  2.5710e-01  9.8296e-03  1.3838e-03  9.5508e-04  0:07:11 1705
   296  9.4645e-03  3.1515e-03  5.0066e-03  2.4985e-01  9.4583e-03  1.3741e-03  9.4414e-04  0:05:45 1704
   297  9.1048e-03  3.1417e-03  4.9302e-03  2.4532e-01  9.0988e-03  1.3621e-03  9.3654e-04  0:04:36 1703

  iter  continuity  x-velocity  y-velocity  z-velocity      energy           k       omega     time/iter
   298  8.8634e-03  3.1089e-03  4.8098e-03  2.4111e-01  8.8575e-03  1.3580e-03  9.2841e-04  0:03:41 1702
   299  8.9183e-03  3.0973e-03  4.7649e-03  2.3864e-01  8.9125e-03  1.3432e-03  9.2540e-04  0:02:56 1701
   300  8.9095e-03  3.0583e-03  4.7195e-03  2.4286e-01  8.9038e-03  1.3250e-03  9.1706e-04  0:02:21 1700
   301  8.9042e-03  3.0133e-03  4.6074e-03  2.4385e-01  8.8984e-03  1.3303e-03  9.1763e-04  0:07:33 1699
   302  8.8896e-03  2.9402e-03  4.5693e-03  2.4505e-01  8.8837e-03  1.3363e-03  9.2515e-04  0:06:02 1698
   303  8.8086e-03  2.8663e-03  4.5258e-03  2.4460e-01  8.8028e-03  1.3218e-03  9.1063e-04  0:04:49 1697
   304  8.6335e-03  2.8427e-03  4.4878e-03  2.4195e-01  8.6279e-03  1.3056e-03  9.0344e-04  0:03:51 1696
   305  8.2877e-03  2.7951e-03  4.4603e-03  2.4192e-01  8.2825e-03  1.3039e-03  8.9072e-04  0:03:05 1695
   306  7.7991e-03  2.7352e-03  4.4501e-03  2.4507e-01  7.7942e-03  1.3031e-03  8.9012e-04  0:02:28 1694
   307  7.3904e-03  2.6844e-03  4.4004e-03  2.3944e-01  7.3860e-03  1.2928e-03  8.7489e-04  0:01:58 1693
   308  7.1015e-03  2.6395e-03  4.3696e-03  2.3843e-01  7.0973e-03  1.2844e-03  8.7023e-04  0:07:13 1692

  iter  continuity  x-velocity  y-velocity  z-velocity      energy           k       omega     time/iter
   309  6.8756e-03  2.5729e-03  4.2984e-03  2.3652e-01  6.8716e-03  1.2755e-03  8.5925e-04  0:05:46 1691
   310  6.8150e-03  2.5278e-03  4.2258e-03  2.3120e-01  6.8111e-03  1.2619e-03  8.6093e-04  0:04:37 1690
   311  6.9116e-03  2.4847e-03  4.1392e-03  2.2720e-01  6.9075e-03  1.2458e-03  8.5287e-04  0:03:41 1689
   312  7.1431e-03  2.4543e-03  4.0714e-03  2.2616e-01  7.1389e-03  1.2299e-03  8.3067e-04  0:02:57 1688
   313  7.2884e-03  2.4299e-03  4.0341e-03  2.2642e-01  7.2840e-03  1.2184e-03  8.3503e-04  0:02:21 1687
   314  7.3878e-03  2.4204e-03  3.9801e-03  2.2297e-01  7.3833e-03  1.2098e-03  8.3249e-04  0:01:53 1686
   315  7.3058e-03  2.4397e-03  3.9443e-03  2.1987e-01  7.3014e-03  1.1902e-03  8.1365e-04  0:07:07 1685
   316  7.0897e-03  2.4526e-03  3.9198e-03  2.1759e-01  7.0854e-03  1.1709e-03  8.0655e-04  0:05:42 1684
   317  6.8440e-03  2.4805e-03  3.9381e-03  2.1585e-01  6.8400e-03  1.1605e-03  7.9644e-04  0:04:33 1683
   318  6.5386e-03  2.5029e-03  3.9417e-03  2.1328e-01  6.5348e-03  1.1519e-03  7.9293e-04  0:03:38 1682
   319  6.3431e-03  2.5034e-03  3.9053e-03  2.1071e-01  6.3393e-03  1.1445e-03  7.9455e-04  0:02:55 1681

  iter  continuity  x-velocity  y-velocity  z-velocity      energy           k       omega     time/iter
   320  6.5491e-03  2.5214e-03  3.8820e-03  2.0968e-01  6.5452e-03  1.1302e-03  7.8269e-04  0:02:20 1680
   321  6.8168e-03  2.5193e-03  3.8701e-03  2.1233e-01  6.8128e-03  1.1129e-03  7.7938e-04  0:01:52 1679
   322  7.0647e-03  2.5160e-03  3.8543e-03  2.1414e-01  7.0604e-03  1.1107e-03  7.7375e-04  0:07:05 1678
   323  7.3442e-03  2.5075e-03  3.8707e-03  2.1656e-01  7.3395e-03  1.1071e-03  7.7917e-04  0:05:40 1677
   324  7.5984e-03  2.4998e-03  3.8858e-03  2.1938e-01  7.5936e-03  1.0960e-03  7.7510e-04  0:04:32 1676
   325  7.6859e-03  2.4952e-03  3.9020e-03  2.1800e-01  7.6810e-03  1.0921e-03  7.5429e-04  0:03:37 1675
   326  7.6659e-03  2.5237e-03  3.9269e-03  2.1799e-01  7.6611e-03  1.0922e-03  7.5007e-04  0:02:54 1674
   327  7.5611e-03  2.5395e-03  3.9387e-03  2.1859e-01  7.5565e-03  1.0863e-03  7.5186e-04  0:02:19 1673
   328  7.3944e-03  2.5470e-03  3.9373e-03  2.1806e-01  7.3900e-03  1.0801e-03  7.3957e-04  0:01:51 1672
   329  7.2999e-03  2.5546e-03  3.9408e-03  2.1681e-01  7.2957e-03  1.0747e-03  7.2749e-04  0:01:29 1671
   330  7.2558e-03  2.5579e-03  3.9016e-03  2.1835e-01  7.2517e-03  1.0737e-03  7.2048e-04  0:06:45 1670

  iter  continuity  x-velocity  y-velocity  z-velocity      energy           k       omega     time/iter
   331  7.3698e-03  2.5515e-03  3.8496e-03  2.1801e-01  7.3659e-03  1.0670e-03  7.0855e-04  0:05:24 1669
   332  7.4734e-03  2.5356e-03  3.7893e-03  2.1461e-01  7.4695e-03  1.0532e-03  7.0018e-04  0:04:19 1668
   333  7.7049e-03  2.5272e-03  3.7325e-03  2.1390e-01  7.7008e-03  1.0483e-03  6.8884e-04  0:03:27 1667
   334  7.9537e-03  2.5415e-03  3.7254e-03  2.1420e-01  7.9495e-03  1.0482e-03  6.7103e-04  0:02:45 1666
   335  8.2433e-03  2.5587e-03  3.7499e-03  2.1139e-01  8.2390e-03  1.0332e-03  6.6565e-04  0:02:12 1665
   336  8.3714e-03  2.5822e-03  3.7606e-03  2.0859e-01  8.3671e-03  1.0179e-03  6.5908e-04  0:01:46 1664
   337  8.2645e-03  2.6205e-03  3.7972e-03  2.0499e-01  8.2602e-03  1.0114e-03  6.4785e-04  0:06:57 1663
   338  8.1324e-03  2.6699e-03  3.9017e-03  2.0427e-01  8.1282e-03  1.0088e-03  6.4652e-04  0:05:34 1662
   339  7.8808e-03  2.6993e-03  3.9482e-03  2.0286e-01  7.8766e-03  9.9893e-04  6.4289e-04  0:04:27 1661
   340  7.7901e-03  2.7362e-03  4.0194e-03  2.0078e-01  7.7860e-03  9.9741e-04  6.4495e-04  0:03:33 1660
   341  7.7203e-03  2.7530e-03  4.0933e-03  2.0019e-01  7.7162e-03  9.9700e-04  6.3986e-04  0:02:50 1659

  iter  continuity  x-velocity  y-velocity  z-velocity      energy           k       omega     time/iter
   342  7.8790e-03  2.7565e-03  4.1485e-03  2.0205e-01  7.8747e-03  9.9014e-04  6.4576e-04  0:02:16 1658
   343  8.1642e-03  2.7531e-03  4.1951e-03  2.0797e-01  8.1596e-03  9.8078e-04  6.4381e-04  0:01:49 1657
   344  8.5801e-03  2.7392e-03  4.2516e-03  2.1719e-01  8.5753e-03  9.8852e-04  6.4824e-04  0:06:58 1656
   345  8.9137e-03  2.7285e-03  4.3198e-03  2.2707e-01  8.9087e-03  9.8798e-04  6.6279e-04  0:05:34 1655
   346  9.2676e-03  2.7341e-03  4.4191e-03  2.3569e-01  9.2624e-03  9.8554e-04  6.5881e-04  0:04:27 1654
   347  9.5211e-03  2.7283e-03  4.5291e-03  2.4158e-01  9.5158e-03  9.9382e-04  6.6109e-04  0:03:34 1653
   348  9.6758e-03  2.7749e-03  4.6322e-03  2.4708e-01  9.6705e-03  1.0010e-03  6.7078e-04  0:02:51 1652
   349  9.6501e-03  2.8350e-03  4.7751e-03  2.4787e-01  9.6450e-03  1.0149e-03  6.7166e-04  0:07:47 1651
   350  9.5455e-03  2.8958e-03  4.9057e-03  2.4943e-01  9.5407e-03  1.0125e-03  6.7906e-04  0:06:13 1650
   351  9.3127e-03  2.9426e-03  4.9885e-03  2.4966e-01  9.3082e-03  1.0250e-03  6.8000e-04  0:04:58 1649
   352  9.0757e-03  2.9694e-03  5.0598e-03  2.4922e-01  9.0715e-03  1.0271e-03  6.8387e-04  0:03:59 1648

  iter  continuity  x-velocity  y-velocity  z-velocity      energy           k       omega     time/iter
   353  8.8854e-03  2.9878e-03  5.1178e-03  2.5286e-01  8.8814e-03  1.0240e-03  6.8705e-04  0:03:11 1647
   354  8.8073e-03  2.9845e-03  5.1088e-03  2.5527e-01  8.8034e-03  1.0285e-03  6.8303e-04  0:02:33 1646
   355  8.8645e-03  2.9663e-03  5.0852e-03  2.5350e-01  8.8607e-03  1.0254e-03  6.8540e-04  0:02:02 1645
   356  8.9747e-03  2.9289e-03  5.0768e-03  2.4995e-01  8.9707e-03  1.0235e-03  6.9175e-04  0:07:06 1644
   357  9.2085e-03  2.9001e-03  5.0802e-03  2.5024e-01  9.2044e-03  1.0166e-03  6.8454e-04  0:05:41 1643
   358  9.4531e-03  2.8916e-03  5.0923e-03  2.5089e-01  9.4487e-03  9.9814e-04  6.8203e-04  0:04:32 1642
   359  9.6402e-03  2.9158e-03  5.1256e-03  2.4905e-01  9.6356e-03  9.8958e-04  6.6638e-04  0:03:38 1641
   360  9.7697e-03  2.9610e-03  5.1966e-03  2.4467e-01  9.7649e-03  9.8368e-04  6.6409e-04  0:02:54 1640
   361  9.5762e-03  3.0355e-03  5.2860e-03  2.4125e-01  9.5713e-03  9.7142e-04  6.6744e-04  0:02:19 1639
   362  9.3539e-03  3.1593e-03  5.3919e-03  2.3669e-01  9.3489e-03  9.6272e-04  6.5964e-04  0:01:51 1638
   363  9.1225e-03  3.2699e-03  5.5372e-03  2.3393e-01  9.1175e-03  9.6136e-04  6.6641e-04  0:06:56 1637

  iter  continuity  x-velocity  y-velocity  z-velocity      energy           k       omega     time/iter
   364  8.8872e-03  3.3755e-03  5.6468e-03  2.3531e-01  8.8822e-03  9.6332e-04  6.7047e-04  0:05:33 1636
   365  8.8804e-03  3.5043e-03  5.7658e-03  2.3642e-01  8.8755e-03  9.6359e-04  6.7942e-04  0:04:26 1635
   366  8.7027e-03  3.5768e-03  5.8458e-03  2.3895e-01  8.6978e-03  9.6196e-04  6.9268e-04  0:03:33 1634
   367  8.7937e-03  3.6127e-03  5.8886e-03  2.4578e-01  8.7888e-03  9.7222e-04  6.9615e-04  0:02:50 1633
   368  9.0528e-03  3.6186e-03  5.9189e-03  2.5521e-01  9.0479e-03  9.8469e-04  7.1041e-04  0:02:16 1632
   369  9.3921e-03  3.5915e-03  5.9842e-03  2.6396e-01  9.3873e-03  1.0014e-03  7.3016e-04  0:01:49 1631
   370  9.6911e-03  3.5873e-03  6.0869e-03  2.7469e-01  9.6862e-03  9.9581e-04  7.4295e-04  0:06:53 1630
   371  9.8471e-03  3.5895e-03  6.2243e-03  2.8416e-01  9.8422e-03  1.0216e-03  7.5042e-04  0:05:30 1629
   372  9.9669e-03  3.6060e-03  6.3170e-03  2.9145e-01  9.9620e-03  1.0390e-03  7.6595e-04  0:04:24 1628
   373  9.9815e-03  3.6393e-03  6.4294e-03  2.9736e-01  9.9768e-03  1.0461e-03  7.7508e-04  0:03:31 1627
   374  9.8647e-03  3.6878e-03  6.6115e-03  3.0036e-01  9.8602e-03  1.0544e-03  7.7310e-04  0:02:49 1626

  iter  continuity  x-velocity  y-velocity  z-velocity      energy           k       omega     time/iter
   375  9.5942e-03  3.7236e-03  6.7836e-03  3.0269e-01  9.5901e-03  1.0761e-03  7.8163e-04  0:02:15 1625
   376  9.1897e-03  3.7147e-03  6.8975e-03  3.0464e-01  9.1860e-03  1.0931e-03  7.9228e-04  0:01:48 1624
   377  8.8448e-03  3.7039e-03  6.9976e-03  3.0364e-01  8.8413e-03  1.0953e-03  7.9087e-04  0:06:51 1623
   378  8.6352e-03  3.6733e-03  7.0834e-03  3.0025e-01  8.6317e-03  1.0912e-03  8.0459e-04  0:05:28 1622
   379  8.6178e-03  3.6640e-03  7.1331e-03  2.9729e-01  8.6143e-03  1.1017e-03  8.0627e-04  0:04:23 1621
   380  8.7787e-03  3.6265e-03  7.1220e-03  2.9306e-01  8.7751e-03  1.0969e-03  8.0414e-04  0:03:30 1620
   381  9.1620e-03  3.5785e-03  7.0866e-03  2.8837e-01  9.1581e-03  1.0885e-03  8.0881e-04  0:02:48 1619
   382  9.6155e-03  3.5296e-03  7.0284e-03  2.8800e-01  9.6113e-03  1.0836e-03  8.1132e-04  0:02:14 1618
   383  1.0051e-02  3.5118e-03  6.9507e-03  2.8673e-01  1.0047e-02  1.0811e-03  8.0996e-04  0:01:47 1617
   384  1.0444e-02  3.5294e-03  6.9318e-03  2.8065e-01  1.0439e-02  1.0725e-03  8.0480e-04  0:06:49 1616
   385  1.0564e-02  3.5556e-03  6.8726e-03  2.7644e-01  1.0559e-02  1.0718e-03  8.0483e-04  0:05:27 1615

  iter  continuity  x-velocity  y-velocity  z-velocity      energy           k       omega     time/iter
   386  1.0620e-02  3.6239e-03  6.8586e-03  2.7157e-01  1.0614e-02  1.0592e-03  7.9711e-04  0:04:21 1614
   387  1.0535e-02  3.7074e-03  6.9094e-03  2.6710e-01  1.0529e-02  1.0480e-03  7.9381e-04  0:03:29 1613
   388  1.0173e-02  3.8119e-03  6.9331e-03  2.6535e-01  1.0167e-02  1.0529e-03  7.9280e-04  0:02:47 1612
   389  9.8471e-03  3.9342e-03  6.9564e-03  2.6155e-01  9.8416e-03  1.0467e-03  7.8585e-04  0:02:14 1611
   390  9.6560e-03  4.0087e-03  6.9507e-03  2.5798e-01  9.6505e-03  1.0324e-03  7.9401e-04  0:01:47 1610
   391  9.7520e-03  4.0541e-03  6.9123e-03  2.5725e-01  9.7467e-03  1.0434e-03  7.9897e-04  0:06:47 1609
   392  1.0034e-02  4.1033e-03  6.8888e-03  2.6015e-01  1.0029e-02  1.0445e-03  8.0607e-04  0:05:26 1608
   393  1.0213e-02  4.1193e-03  6.8512e-03  2.6481e-01  1.0207e-02  1.0499e-03  8.2072e-04  0:04:20 1607
   394  1.0456e-02  4.1061e-03  6.7922e-03  2.7156e-01  1.0450e-02  1.0401e-03  8.3579e-04  0:03:28 1606
   395  1.0576e-02  4.0519e-03  6.7412e-03  2.7516e-01  1.0571e-02  1.0441e-03  8.4592e-04  0:02:46 1605
   396  1.0692e-02  4.0328e-03  6.7258e-03  2.7865e-01  1.0686e-02  1.0596e-03  8.4382e-04  0:02:13 1604

  iter  continuity  x-velocity  y-velocity  z-velocity      energy           k       omega     time/iter
   397  1.0538e-02  4.0222e-03  6.7125e-03  2.8099e-01  1.0532e-02  1.0614e-03  8.5785e-04  0:01:46 1603
   398  1.0214e-02  3.9664e-03  6.7353e-03  2.7904e-01  1.0209e-02  1.0657e-03  8.4547e-04  0:06:45 1602
   399  9.8698e-03  3.9035e-03  6.7695e-03  2.7596e-01  9.8650e-03  1.0587e-03  8.4964e-04  0:05:24 1601
   400  9.3094e-03  3.8684e-03  6.7606e-03  2.7756e-01  9.3049e-03  1.0735e-03  8.4674e-04  0:04:19 1600
   401  8.9584e-03  3.7851e-03  6.7046e-03  2.7003e-01  8.9541e-03  1.0701e-03  8.4500e-04  0:03:27 1599
   402  8.6654e-03  3.7174e-03  6.6623e-03  2.6720e-01  8.6612e-03  1.0593e-03  8.4560e-04  0:02:46 1598
   403  8.5910e-03  3.6594e-03  6.6009e-03  2.6511e-01  8.5869e-03  1.0604e-03  8.4373e-04  0:02:12 1597
   404  8.7852e-03  3.5992e-03  6.4825e-03  2.5784e-01  8.7811e-03  1.0584e-03  8.4004e-04  0:07:05 1596
   405  9.0243e-03  3.5271e-03  6.3539e-03  2.5590e-01  9.0201e-03  1.0415e-03  8.3655e-04  0:05:40 1595
   406  9.3802e-03  3.4781e-03  6.2450e-03  2.5444e-01  9.3757e-03  1.0327e-03  8.3610e-04  0:04:32 1594
   407  9.8841e-03  3.4560e-03  6.1629e-03  2.5001e-01  9.8795e-03  1.0194e-03  8.2565e-04  0:03:37 1593

  iter  continuity  x-velocity  y-velocity  z-velocity      energy           k       omega     time/iter
   408  9.9163e-03  3.4059e-03  6.0659e-03  2.4227e-01  9.9116e-03  1.0037e-03  8.1587e-04  0:02:54 1592
   409  9.8372e-03  3.4112e-03  5.9959e-03  2.3665e-01  9.8324e-03  1.0069e-03  8.1080e-04  0:02:19 1591
   410  9.7289e-03  3.4233e-03  5.9924e-03  2.3080e-01  9.7240e-03  9.8562e-04  8.0139e-04  0:01:51 1590
   411  9.3908e-03  3.4380e-03  5.9690e-03  2.2683e-01  9.3860e-03  9.6580e-04  7.8574e-04  0:06:47 1589
   412  9.0072e-03  3.4762e-03  5.9286e-03  2.2193e-01  9.0026e-03  9.6593e-04  7.8041e-04  0:05:25 1588
   413  8.6518e-03  3.4880e-03  5.9083e-03  2.1927e-01  8.6473e-03  9.6064e-04  7.7889e-04  0:04:20 1587
   414  8.5907e-03  3.4786e-03  5.8325e-03  2.1858e-01  8.5862e-03  9.5401e-04  7.7351e-04  0:03:28 1586
   415  8.9676e-03  3.4750e-03  5.8060e-03  2.1828e-01  8.9631e-03  9.4304e-04  7.7441e-04  0:02:46 1585
   416  9.1173e-03  3.4475e-03  5.7261e-03  2.2309e-01  9.1128e-03  9.3877e-04  7.7287e-04  0:02:13 1584
   417  9.2276e-03  3.4165e-03  5.6601e-03  2.2689e-01  9.2231e-03  9.4076e-04  7.7817e-04  0:01:46 1583
   418  9.4035e-03  3.3596e-03  5.6591e-03  2.2881e-01  9.3989e-03  9.3718e-04  7.8112e-04  0:06:41 1582

  iter  continuity  x-velocity  y-velocity  z-velocity      energy           k       omega     time/iter
   419  9.4560e-03  3.3042e-03  5.6231e-03  2.3195e-01  9.4513e-03  9.2461e-04  7.6688e-04  0:05:21 1581
   420  9.3440e-03  3.2965e-03  5.6093e-03  2.3134e-01  9.3394e-03  9.3176e-04  7.6950e-04  0:04:16 1580
   421  9.0395e-03  3.2599e-03  5.6344e-03  2.3088e-01  9.0350e-03  9.3531e-04  7.7225e-04  0:03:25 1579
   422  8.5765e-03  3.2124e-03  5.6481e-03  2.3240e-01  8.5724e-03  9.2803e-04  7.6329e-04  0:02:44 1578
   423  8.1793e-03  3.1657e-03  5.6249e-03  2.2691e-01  8.1754e-03  9.1658e-04  7.4392e-04  0:02:11 1577
   424  7.8591e-03  3.1206e-03  5.5910e-03  2.2331e-01  7.8554e-03  9.1722e-04  7.4402e-04  0:07:00 1576
   425  7.6923e-03  3.0525e-03  5.5044e-03  2.2249e-01  7.6887e-03  9.1493e-04  7.3498e-04  0:05:36 1575
   426  7.7228e-03  3.0116e-03  5.4194e-03  2.1354e-01  7.7192e-03  8.9960e-04  7.3163e-04  0:04:28 1574
   427  7.9612e-03  2.9558e-03  5.3251e-03  2.0870e-01  7.9574e-03  8.9775e-04  7.2392e-04  0:03:35 1573
   428  8.2894e-03  2.9072e-03  5.2376e-03  2.0825e-01  8.2856e-03  8.8147e-04  7.0378e-04  0:02:52 1572
   429  8.7602e-03  2.8949e-03  5.1830e-03  2.0687e-01  8.7561e-03  8.6356e-04  7.0075e-04  0:02:17 1571

  iter  continuity  x-velocity  y-velocity  z-velocity      energy           k       omega     time/iter
   430  8.8295e-03  2.8757e-03  5.1047e-03  2.0195e-01  8.8252e-03  8.5312e-04  6.9295e-04  0:01:50 1570
   431  8.7994e-03  2.8835e-03  5.0410e-03  1.9857e-01  8.7951e-03  8.3326e-04  6.6641e-04  0:06:41 1569
   432  8.7182e-03  2.9172e-03  5.0458e-03  1.9577e-01  8.7139e-03  8.2107e-04  6.7149e-04  0:05:21 1568
   433  8.4760e-03  2.9512e-03  5.0608e-03  1.9254e-01  8.4718e-03  8.1695e-04  6.6536e-04  0:04:17 1567
   434  8.0691e-03  2.9858e-03  5.0696e-03  1.9036e-01  8.0650e-03  8.0537e-04  6.5315e-04  0:03:25 1566
   435  7.7986e-03  3.0338e-03  5.0549e-03  1.8940e-01  7.7947e-03  7.8879e-04  6.5134e-04  0:02:44 1565
   436  7.7239e-03  3.0379e-03  5.0205e-03  1.8980e-01  7.7200e-03  7.8748e-04  6.5355e-04  0:02:11 1564
   437  8.1032e-03  3.0399e-03  4.9841e-03  1.9283e-01  8.0992e-03  7.7717e-04  6.4997e-04  0:06:57 1563
   438  8.5418e-03  3.0231e-03  4.9726e-03  1.9813e-01  8.5377e-03  7.6801e-04  6.4508e-04  0:05:34 1562
   439  8.7334e-03  2.9964e-03  4.9429e-03  2.0504e-01  8.7292e-03  7.7142e-04  6.5474e-04  0:04:27 1561
   440  8.8907e-03  2.9851e-03  4.9726e-03  2.1052e-01  8.8864e-03  7.7294e-04  6.5978e-04  0:03:33 1560

  iter  continuity  x-velocity  y-velocity  z-velocity      energy           k       omega     time/iter
   441  8.9590e-03  2.9468e-03  5.0168e-03  2.1626e-01  8.9547e-03  7.6140e-04  6.5554e-04  0:02:51 1559
   442  9.0046e-03  2.9300e-03  5.0550e-03  2.1950e-01  9.0003e-03  7.6982e-04  6.6036e-04  0:02:16 1558
   443  8.8822e-03  2.9435e-03  5.1333e-03  2.1903e-01  8.8780e-03  7.7680e-04  6.6197e-04  0:07:00 1557
   444  8.5558e-03  2.9405e-03  5.2184e-03  2.1840e-01  8.5518e-03  7.7593e-04  6.6088e-04  0:05:36 1556
   445  8.1778e-03  2.9368e-03  5.2444e-03  2.1884e-01  8.1741e-03  7.7163e-04  6.5367e-04  0:04:29 1555
   446  7.8736e-03  2.9226e-03  5.2740e-03  2.1693e-01  7.8701e-03  7.7260e-04  6.5065e-04  0:03:35 1554
   447  7.6976e-03  2.9037e-03  5.2788e-03  2.1837e-01  7.6942e-03  7.7769e-04  6.5534e-04  0:02:52 1553
   448  7.6870e-03  2.8770e-03  5.2251e-03  2.1736e-01  7.6837e-03  7.7249e-04  6.4963e-04  0:02:17 1552
   449  7.9102e-03  2.8557e-03  5.1842e-03  2.1208e-01  7.9067e-03  7.5854e-04  6.4511e-04  0:01:50 1551
   450  8.1531e-03  2.8381e-03  5.1214e-03  2.0961e-01  8.1496e-03  7.6613e-04  6.3737e-04  0:06:38 1550
   451  8.5954e-03  2.8285e-03  5.0847e-03  2.0950e-01  8.5917e-03  7.6095e-04  6.3262e-04  0:05:18 1549

  iter  continuity  x-velocity  y-velocity  z-velocity      energy           k       omega     time/iter
   452  9.0165e-03  2.8346e-03  5.1073e-03  2.0667e-01  9.0125e-03  7.3801e-04  6.2808e-04  0:04:14 1548
   453  9.0739e-03  2.8404e-03  5.0635e-03  2.0101e-01  9.0698e-03  7.3008e-04  6.1670e-04  0:03:23 1547
   454  9.0356e-03  2.8978e-03  5.0577e-03  1.9739e-01  9.0314e-03  7.2773e-04  6.0900e-04  0:02:43 1546
   455  8.9450e-03  2.9653e-03  5.1381e-03  1.9476e-01  8.9408e-03  7.1637e-04  6.1001e-04  0:02:10 1545
   456  8.6799e-03  3.0203e-03  5.1995e-03  1.9158e-01  8.6758e-03  7.1224e-04  6.0898e-04  0:06:53 1544
   457  8.3723e-03  3.1104e-03  5.2597e-03  1.9021e-01  8.3683e-03  7.0510e-04  6.0161e-04  0:05:30 1543
   458  8.2371e-03  3.1962e-03  5.3067e-03  1.8963e-01  8.2331e-03  6.9973e-04  6.0666e-04  0:04:24 1542
   459  8.3154e-03  3.2179e-03  5.3261e-03  1.9199e-01  8.3114e-03  7.0102e-04  6.1294e-04  0:03:31 1541
   460  8.7354e-03  3.2355e-03  5.3065e-03  1.9869e-01  8.7314e-03  6.9701e-04  6.1520e-04  0:02:49 1540
   461  9.2209e-03  3.2234e-03  5.3350e-03  2.0621e-01  9.2168e-03  7.0233e-04  6.2396e-04  0:02:15 1539
   462  9.5571e-03  3.2130e-03  5.3601e-03  2.1575e-01  9.5528e-03  7.0543e-04  6.3268e-04  0:01:48 1538

  iter  continuity  x-velocity  y-velocity  z-velocity      energy           k       omega     time/iter
   463  9.7023e-03  3.2141e-03  5.4427e-03  2.2152e-01  9.6980e-03  7.1320e-04  6.3865e-04  0:06:34 1537
   464  9.8265e-03  3.1958e-03  5.5200e-03  2.2894e-01  9.8221e-03  7.2217e-04  6.4039e-04  0:05:15 1536
   465  9.8919e-03  3.2031e-03  5.5841e-03  2.3592e-01  9.8875e-03  7.3915e-04  6.5744e-04  0:04:12 1535
   466  9.8643e-03  3.2262e-03  5.7284e-03  2.3866e-01  9.8599e-03  7.4806e-04  6.5992e-04  0:03:21 1534
   467  9.6292e-03  3.2611e-03  5.8798e-03  2.3971e-01  9.6251e-03  7.5140e-04  6.6040e-04  0:02:41 1533
   468  9.2423e-03  3.2754e-03  5.9432e-03  2.4205e-01  9.2384e-03  7.5860e-04  6.6776e-04  0:02:09 1532
   469  8.8940e-03  3.2815e-03  6.0106e-03  2.4151e-01  8.8903e-03  7.6714e-04  6.7155e-04  0:01:43 1531
   470  8.7404e-03  3.2819e-03  6.0748e-03  2.4322e-01  8.7369e-03  7.7000e-04  6.7420e-04  0:06:28 1530
   471  8.6483e-03  3.2649e-03  6.0538e-03  2.4429e-01  8.6449e-03  7.7447e-04  6.6894e-04  0:05:10 1529
   472  8.8041e-03  3.2471e-03  6.0220e-03  2.4045e-01  8.8006e-03  7.6613e-04  6.7161e-04  0:04:08 1528
   473  9.1735e-03  3.2411e-03  5.9973e-03  2.3761e-01  9.1699e-03  7.6969e-04  6.7453e-04  0:03:18 1527

  iter  continuity  x-velocity  y-velocity  z-velocity      energy           k       omega     time/iter
   474  9.5661e-03  3.2219e-03  5.9647e-03  2.3758e-01  9.5623e-03  7.6950e-04  6.6916e-04  0:02:39 1526
   475  9.9970e-03  3.2191e-03  5.9296e-03  2.3517e-01  9.9930e-03  7.4708e-04  6.7152e-04  0:02:07 1525
   476  1.0273e-02  3.2209e-03  5.9696e-03  2.2928e-01  1.0269e-02  7.4601e-04  6.5881e-04  0:01:41 1524
   477  1.0344e-02  3.2873e-03  5.9697e-03  2.2583e-01  1.0339e-02  7.4357e-04  6.6030e-04  0:06:26 1523
   478  1.0249e-02  3.3725e-03  6.0207e-03  2.2101e-01  1.0245e-02  7.2993e-04  6.5433e-04  0:05:08 1522
   479  1.0040e-02  3.4642e-03  6.1525e-03  2.1741e-01  1.0035e-02  7.2498e-04  6.4597e-04  0:04:06 1521
   480  9.7847e-03  3.5541e-03  6.2416e-03  2.1600e-01  9.7803e-03  7.2196e-04  6.5040e-04  0:03:17 1520
   481  9.4164e-03  3.6880e-03  6.3417e-03  2.1675e-01  9.4122e-03  7.2209e-04  6.5715e-04  0:02:38 1519
   482  9.3363e-03  3.7821e-03  6.3965e-03  2.1742e-01  9.3322e-03  7.2513e-04  6.6423e-04  0:02:06 1518
   483  9.6411e-03  3.8076e-03  6.4251e-03  2.2179e-01  9.6369e-03  7.2779e-04  6.6960e-04  0:06:44 1517
   484  1.0193e-02  3.8264e-03  6.4075e-03  2.3061e-01  1.0188e-02  7.2907e-04  6.7703e-04  0:05:23 1516

  iter  continuity  x-velocity  y-velocity  z-velocity      energy           k       omega     time/iter
   485  1.0760e-02  3.8110e-03  6.4635e-03  2.4034e-01  1.0756e-02  7.4629e-04  6.9201e-04  0:04:18 1515
   486  1.1040e-02  3.8051e-03  6.5042e-03  2.5400e-01  1.1035e-02  7.5431e-04  7.0376e-04  0:03:26 1514
   487  1.1170e-02  3.7913e-03  6.5973e-03  2.6233e-01  1.1165e-02  7.6160e-04  7.0810e-04  0:02:45 1513
   488  1.1327e-02  3.7684e-03  6.7000e-03  2.6819e-01  1.1322e-02  7.8671e-04  7.1930e-04  0:02:12 1512
   489  1.1375e-02  3.7860e-03  6.7564e-03  2.7424e-01  1.1370e-02  8.0112e-04  7.3076e-04  0:01:46 1511
   490  1.1315e-02  3.8165e-03  6.9574e-03  2.7641e-01  1.1311e-02  8.0546e-04  7.3309e-04  0:06:26 1510
   491  1.1010e-02  3.8450e-03  7.1446e-03  2.7761e-01  1.1006e-02  8.1651e-04  7.3088e-04  0:05:09 1509
   492  1.0501e-02  3.8494e-03  7.2131e-03  2.8096e-01  1.0497e-02  8.3090e-04  7.4206e-04  0:04:07 1508
   493  1.0072e-02  3.8496e-03  7.2880e-03  2.7925e-01  1.0069e-02  8.3586e-04  7.4698e-04  0:03:17 1507
   494  9.9256e-03  3.8356e-03  7.3576e-03  2.7693e-01  9.9219e-03  8.4021e-04  7.4918e-04  0:02:38 1506
   495  9.8162e-03  3.8130e-03  7.3586e-03  2.7486e-01  9.8126e-03  8.4479e-04  7.4611e-04  0:02:06 1505

  iter  continuity  x-velocity  y-velocity  z-velocity      energy           k       omega     time/iter
   496  1.0026e-02  3.7850e-03  7.3164e-03  2.6719e-01  1.0023e-02  8.4203e-04  7.5386e-04  0:01:41 1504
   497  1.0489e-02  3.7619e-03  7.2716e-03  2.6476e-01  1.0485e-02  8.4062e-04  7.4544e-04  0:06:21 1503
   498  1.0914e-02  3.7255e-03  7.2039e-03  2.6496e-01  1.0910e-02  8.2868e-04  7.5078e-04  0:05:05 1502
   499  1.1399e-02  3.7174e-03  7.1352e-03  2.6155e-01  1.1395e-02  8.1935e-04  7.4871e-04  0:04:04 1501
   500  1.1654e-02  3.7272e-03  7.1558e-03  2.5481e-01  1.1649e-02  8.1413e-04  7.2836e-04  0:03:15 1500
   501  1.1756e-02  3.8001e-03  7.1437e-03  2.5160e-01  1.1751e-02  8.0520e-04  7.3217e-04  0:02:36 1499
   502  1.1623e-02  3.9042e-03  7.1972e-03  2.4789e-01  1.1618e-02  8.0061e-04  7.2852e-04  0:02:05 1498
   503  1.1339e-02  4.0048e-03  7.3126e-03  2.4504e-01  1.1334e-02  7.9076e-04  7.1639e-04  0:06:39 1497
   504  1.0936e-02  4.1202e-03  7.4268e-03  2.4589e-01  1.0931e-02  7.9441e-04  7.1718e-04  0:05:19 1496
   505  1.0474e-02  4.2688e-03  7.5064e-03  2.4802e-01  1.0469e-02  7.9809e-04  7.2494e-04  0:04:15 1495
   506  1.0301e-02  4.3670e-03  7.5349e-03  2.5182e-01  1.0297e-02  7.9385e-04  7.2776e-04  0:03:24 1494

  iter  continuity  x-velocity  y-velocity  z-velocity      energy           k       omega     time/iter
   507  1.0653e-02  4.3991e-03  7.5474e-03  2.5678e-01  1.0649e-02  8.0279e-04  7.3381e-04  0:02:43 1493
   508  1.1408e-02  4.4285e-03  7.5039e-03  2.6563e-01  1.1404e-02  8.1054e-04  7.4465e-04  0:02:10 1492
   509  1.2080e-02  4.4139e-03  7.5184e-03  2.7456e-01  1.2075e-02  8.3022e-04  7.5777e-04  0:01:44 1491
   510  1.2451e-02  4.4087e-03  7.5258e-03  2.8941e-01  1.2447e-02  8.4042e-04  7.8247e-04  0:06:21 1490
   511  1.2571e-02  4.3628e-03  7.5574e-03  2.9974e-01  1.2566e-02  8.4525e-04  7.8321e-04  0:05:05 1489
   512  1.2682e-02  4.3101e-03  7.6282e-03  3.0666e-01  1.2677e-02  8.7082e-04  7.9381e-04  0:04:04 1488
   513  1.2704e-02  4.3074e-03  7.6827e-03  3.1258e-01  1.2699e-02  8.8914e-04  7.9810e-04  0:03:15 1487
   514  1.2389e-02  4.3099e-03  7.8396e-03  3.1565e-01  1.2384e-02  8.8537e-04  8.0114e-04  0:02:36 1486
   515  1.1950e-02  4.2894e-03  8.0104e-03  3.1699e-01  1.1946e-02  9.0085e-04  7.9783e-04  0:02:05 1485
   516  1.1282e-02  4.2658e-03  8.0574e-03  3.1708e-01  1.1278e-02  9.1332e-04  8.0962e-04  0:06:36 1484
   517  1.0792e-02  4.2244e-03  8.0975e-03  3.1227e-01  1.0788e-02  9.2204e-04  8.1338e-04  0:05:17 1483

  iter  continuity  x-velocity  y-velocity  z-velocity      energy           k       omega     time/iter
   518  1.0542e-02  4.2009e-03  8.1319e-03  3.1240e-01  1.0538e-02  9.2034e-04  8.0991e-04  0:04:13 1482
   519  1.0503e-02  4.1477e-03  8.1002e-03  3.1015e-01  1.0499e-02  9.1761e-04  8.1588e-04  0:03:23 1481
   520  1.0804e-02  4.1163e-03  8.0069e-03  3.0160e-01  1.0800e-02  9.2032e-04  8.1629e-04  0:02:42 1480
   521  1.1318e-02  4.0763e-03  7.9227e-03  3.0110e-01  1.1314e-02  9.0688e-04  8.0510e-04  0:02:09 1479
   522  1.1810e-02  4.0227e-03  7.8092e-03  2.9837e-01  1.1806e-02  9.0134e-04  8.1227e-04  0:06:39 1478
   523  1.2277e-02  4.0055e-03  7.7174e-03  2.9432e-01  1.2272e-02  8.9339e-04  8.0356e-04  0:05:19 1477
   524  1.2418e-02  4.0060e-03  7.6969e-03  2.8694e-01  1.2413e-02  8.7887e-04  7.8147e-04  0:04:15 1476
   525  1.2372e-02  4.0899e-03  7.6538e-03  2.8071e-01  1.2368e-02  8.7979e-04  7.8549e-04  0:03:24 1475
   526  1.2150e-02  4.1683e-03  7.6689e-03  2.7494e-01  1.2145e-02  8.6705e-04  7.8017e-04  0:02:43 1474
   527  1.1799e-02  4.2570e-03  7.7690e-03  2.7203e-01  1.1794e-02  8.5390e-04  7.6251e-04  0:02:10 1473
   528  1.1191e-02  4.3550e-03  7.8240e-03  2.7105e-01  1.1186e-02  8.6176e-04  7.6499e-04  0:01:44 1472

  iter  continuity  x-velocity  y-velocity  z-velocity      energy           k       omega     time/iter
   529  1.0773e-02  4.4821e-03  7.8326e-03  2.7016e-01  1.0768e-02  8.6109e-04  7.7508e-04  0:06:17 1471
   530  1.0700e-02  4.5294e-03  7.8301e-03  2.7292e-01  1.0695e-02  8.5666e-04  7.7251e-04  0:05:02 1470
   531  1.1279e-02  4.5457e-03  7.7715e-03  2.7785e-01  1.1275e-02  8.6110e-04  7.7906e-04  0:04:01 1469
   532  1.2105e-02  4.5570e-03  7.7215e-03  2.8351e-01  1.2101e-02  8.6865e-04  7.8575e-04  0:03:13 1468
   533  1.2636e-02  4.5375e-03  7.6998e-03  2.9714e-01  1.2631e-02  8.8247e-04  8.0475e-04  0:02:34 1467
   534  1.2918e-02  4.5062e-03  7.6423e-03  3.0659e-01  1.2914e-02  8.8398e-04  8.1466e-04  0:02:03 1466
   535  1.3079e-02  4.4242e-03  7.6582e-03  3.1245e-01  1.3074e-02  8.8783e-04  8.1641e-04  0:01:39 1465
   536  1.3191e-02  4.3736e-03  7.6894e-03  3.1762e-01  1.3186e-02  9.0553e-04  8.1777e-04  0:06:12 1464
   537  1.2853e-02  4.3638e-03  7.7717e-03  3.2100e-01  1.2848e-02  9.1384e-04  8.2273e-04  0:04:57 1463
   538  1.2370e-02  4.3104e-03  7.8815e-03  3.2375e-01  1.2365e-02  9.1186e-04  8.1901e-04  0:03:57 1462
   539  1.1649e-02  4.2694e-03  7.9670e-03  3.2300e-01  1.1645e-02  9.2310e-04  8.2098e-04  0:03:10 1461

  iter  continuity  x-velocity  y-velocity  z-velocity      energy           k       omega     time/iter
   540  1.0996e-02  4.2077e-03  7.9666e-03  3.1542e-01  1.0991e-02  9.1928e-04  8.2162e-04  0:02:32 1460
   541  1.0617e-02  4.1666e-03  7.9560e-03  3.1142e-01  1.0613e-02  9.2650e-04  8.2987e-04  0:02:01 1459
   542  1.0451e-02  4.1167e-03  7.9125e-03  3.0756e-01  1.0447e-02  9.2159e-04  8.2699e-04  0:01:37 1458
   543  1.0681e-02  4.0744e-03  7.8200e-03  3.0408e-01  1.0677e-02  9.1141e-04  8.2939e-04  0:06:09 1457
   544  1.1139e-02  4.0358e-03  7.7062e-03  2.9888e-01  1.1135e-02  9.0801e-04  8.1832e-04  0:04:55 1456
   545  1.1558e-02  3.9604e-03  7.5766e-03  2.9817e-01  1.1554e-02  8.8783e-04  8.0738e-04  0:03:56 1455
   546  1.2051e-02  3.9305e-03  7.4746e-03  2.9104e-01  1.2046e-02  8.7895e-04  8.0806e-04  0:03:09 1454
   547  1.2214e-02  3.9159e-03  7.4227e-03  2.8064e-01  1.2209e-02  8.7005e-04  7.8789e-04  0:02:31 1453
   548  1.2177e-02  3.9696e-03  7.3443e-03  2.7532e-01  1.2173e-02  8.5391e-04  7.7205e-04  0:02:00 1452
   549  1.1971e-02  4.0381e-03  7.3511e-03  2.6846e-01  1.1966e-02  8.5032e-04  7.7304e-04  0:06:27 1451
   550  1.1615e-02  4.1045e-03  7.4147e-03  2.6421e-01  1.1610e-02  8.3540e-04  7.5635e-04  0:05:09 1450

  iter  continuity  x-velocity  y-velocity  z-velocity      energy           k       omega     time/iter
   551  1.1031e-02  4.1826e-03  7.4585e-03  2.6425e-01  1.1026e-02  8.2760e-04  7.4559e-04  0:04:07 1449
   552  1.0598e-02  4.2947e-03  7.4661e-03  2.6275e-01  1.0594e-02  8.2637e-04  7.5236e-04  0:03:17 1448
   553  1.0469e-02  4.3567e-03  7.4692e-03  2.6452e-01  1.0464e-02  8.2774e-04  7.5914e-04  0:02:38 1447
   554  1.0921e-02  4.3613e-03  7.3992e-03  2.6913e-01  1.0916e-02  8.2312e-04  7.5850e-04  0:02:06 1446
   555  1.1754e-02  4.3585e-03  7.3416e-03  2.7436e-01  1.1750e-02  8.2439e-04  7.5839e-04  0:01:41 1445
   556  1.2361e-02  4.3296e-03  7.3225e-03  2.8600e-01  1.2357e-02  8.3720e-04  7.7037e-04  0:06:09 1444
   557  1.2678e-02  4.3034e-03  7.2712e-03  2.9755e-01  1.2673e-02  8.4138e-04  7.8586e-04  0:04:55 1443
   558  1.2851e-02  4.2360e-03  7.3028e-03  3.0522e-01  1.2847e-02  8.4340e-04  7.7918e-04  0:03:56 1442
   559  1.2926e-02  4.1662e-03  7.3399e-03  3.1036e-01  1.2921e-02  8.5056e-04  7.8339e-04  0:03:09 1441
   560  1.2728e-02  4.1558e-03  7.3980e-03  3.1235e-01  1.2723e-02  8.6478e-04  7.8699e-04  0:02:31 1440
   561  1.2299e-02  4.1271e-03  7.5293e-03  3.1579e-01  1.2295e-02  8.6208e-04  7.8469e-04  0:02:01 1439

  iter  continuity  x-velocity  y-velocity  z-velocity      energy           k       omega     time/iter
   562  1.1582e-02  4.0976e-03  7.6325e-03  3.1865e-01  1.1577e-02  8.6309e-04  7.8511e-04  0:01:36 1438
   563  1.0938e-02  4.0460e-03  7.6297e-03  3.1153e-01  1.0934e-02  8.6527e-04  7.8126e-04  0:06:05 1437
   564  1.0519e-02  4.0162e-03  7.6356e-03  3.0514e-01  1.0515e-02  8.7031e-04  7.8487e-04  0:04:51 1436
   565  1.0353e-02  3.9610e-03  7.6048e-03  3.0525e-01  1.0349e-02  8.7434e-04  7.8751e-04  0:03:53 1435
   566  1.0500e-02  3.9246e-03  7.5240e-03  2.9942e-01  1.0496e-02  8.5008e-04  7.8127e-04  0:03:06 1434
   567  1.0925e-02  3.8850e-03  7.4140e-03  2.9306e-01  1.0921e-02  8.5031e-04  7.7292e-04  0:02:29 1433
   568  1.1329e-02  3.8232e-03  7.2954e-03  2.9198e-01  1.1325e-02  8.3927e-04  7.5663e-04  0:01:59 1432
   569  1.1822e-02  3.7967e-03  7.2047e-03  2.8638e-01  1.1817e-02  8.1840e-04  7.5640e-04  0:06:21 1431
   570  1.2004e-02  3.7859e-03  7.1606e-03  2.7688e-01  1.1999e-02  8.1146e-04  7.4094e-04  0:05:05 1430
   571  1.1998e-02  3.8355e-03  7.1028e-03  2.7080e-01  1.1993e-02  7.9489e-04  7.2019e-04  0:04:04 1429
   572  1.1784e-02  3.9173e-03  7.1278e-03  2.6549e-01  1.1780e-02  7.8639e-04  7.2541e-04  0:03:15 1428

  iter  continuity  x-velocity  y-velocity  z-velocity      energy           k       omega     time/iter
   573  1.1436e-02  3.9895e-03  7.1893e-03  2.6140e-01  1.1432e-02  7.7702e-04  7.1778e-04  0:02:36 1427
   574  1.0939e-02  4.0774e-03  7.2699e-03  2.6195e-01  1.0934e-02  7.6762e-04  7.0285e-04  0:02:05 1426
   575  1.0490e-02  4.1956e-03  7.2968e-03  2.6200e-01  1.0485e-02  7.6127e-04  7.0872e-04  0:01:40 1425
   576  1.0310e-02  4.2746e-03  7.3114e-03  2.6623e-01  1.0305e-02  7.6535e-04  7.1424e-04  0:06:04 1424
   577  1.0751e-02  4.2908e-03  7.2785e-03  2.7129e-01  1.0747e-02  7.6310e-04  7.2155e-04  0:04:51 1423
   578  1.1592e-02  4.2942e-03  7.2194e-03  2.7806e-01  1.1587e-02  7.6398e-04  7.1984e-04  0:03:53 1422
   579  1.2382e-02  4.2687e-03  7.2191e-03  2.8846e-01  1.2377e-02  7.7485e-04  7.3386e-04  0:03:06 1421
   580  1.2782e-02  4.2501e-03  7.2091e-03  3.0244e-01  1.2777e-02  7.8328e-04  7.5066e-04  0:02:29 1420
   581  1.2919e-02  4.1997e-03  7.2460e-03  3.0955e-01  1.2914e-02  7.8698e-04  7.4775e-04  0:01:59 1419
   582  1.2994e-02  4.1379e-03  7.3183e-03  3.1841e-01  1.2989e-02  7.9718e-04  7.5527e-04  0:06:19 1418
   583  1.2897e-02  4.1166e-03  7.3671e-03  3.2272e-01  1.2892e-02  8.1296e-04  7.6076e-04  0:05:03 1417

  iter  continuity  x-velocity  y-velocity  z-velocity      energy           k       omega     time/iter
   584  1.2587e-02  4.1248e-03  7.5378e-03  3.2757e-01  1.2582e-02  8.1248e-04  7.6441e-04  0:04:02 1416
   585  1.2011e-02  4.1102e-03  7.6914e-03  3.2880e-01  1.2006e-02  8.1428e-04  7.6569e-04  0:03:13 1415
   586  1.1304e-02  4.0823e-03  7.7264e-03  3.2681e-01  1.1300e-02  8.2630e-04  7.6693e-04  0:02:35 1414
   587  1.0847e-02  4.0585e-03  7.7433e-03  3.2072e-01  1.0843e-02  8.2788e-04  7.6613e-04  0:02:04 1413
   588  1.0659e-02  4.0189e-03  7.7612e-03  3.1883e-01  1.0655e-02  8.3892e-04  7.7677e-04  0:01:39 1412
   589  1.0710e-02  3.9853e-03  7.7097e-03  3.1604e-01  1.0706e-02  8.2080e-04  7.6158e-04  0:06:01 1411
   590  1.1053e-02  3.9455e-03  7.6003e-03  3.0942e-01  1.1049e-02  8.1763e-04  7.6337e-04  0:04:49 1410
   591  1.1508e-02  3.9081e-03  7.5012e-03  3.1026e-01  1.1503e-02  8.1528e-04  7.5709e-04  0:03:51 1409
   592  1.1988e-02  3.8729e-03  7.4186e-03  3.0727e-01  1.1983e-02  7.9677e-04  7.4869e-04  0:03:05 1408
   593  1.2335e-02  3.8649e-03  7.3655e-03  2.9850e-01  1.2330e-02  7.8302e-04  7.4472e-04  0:02:28 1407
   594  1.2417e-02  3.8921e-03  7.3393e-03  2.9015e-01  1.2412e-02  7.7343e-04  7.1942e-04  0:01:58 1406

  iter  continuity  x-velocity  y-velocity  z-velocity      energy           k       omega     time/iter
   595  1.2200e-02  4.0013e-03  7.3542e-03  2.8517e-01  1.2195e-02  7.6045e-04  7.2269e-04  0:01:34 1405
   596  1.1877e-02  4.0847e-03  7.4059e-03  2.8106e-01  1.1872e-02  7.5222e-04  7.1879e-04  0:05:56 1404
   597  1.1440e-02  4.1883e-03  7.5483e-03  2.8026e-01  1.1436e-02  7.4312e-04  7.0575e-04  0:04:45 1403
   598  1.0901e-02  4.2951e-03  7.6164e-03  2.8143e-01  1.0897e-02  7.3637e-04  7.0798e-04  0:03:48 1402
   599  1.0633e-02  4.4293e-03  7.6401e-03  2.8310e-01  1.0628e-02  7.3936e-04  7.1582e-04  0:03:02 1401
   600  1.0757e-02  4.4729e-03  7.6705e-03  2.8960e-01  1.0752e-02  7.4236e-04  7.2118e-04  0:02:25 1400
   601  1.1512e-02  4.4861e-03  7.6172e-03  2.9857e-01  1.1507e-02  7.4141e-04  7.3274e-04  0:01:56 1399
   602  1.2543e-02  4.4845e-03  7.5898e-03  3.0692e-01  1.2539e-02  7.5514e-04  7.3990e-04  0:06:13 1398
   603  1.3206e-02  4.4552e-03  7.6129e-03  3.2230e-01  1.3201e-02  7.6626e-04  7.5850e-04  0:04:58 1397
   604  1.3453e-02  4.4349e-03  7.6017e-03  3.3772e-01  1.3448e-02  7.7332e-04  7.6454e-04  0:03:58 1396
   605  1.3611e-02  4.3684e-03  7.7006e-03  3.4767e-01  1.3606e-02  7.8113e-04  7.6705e-04  0:03:10 1395

  iter  continuity  x-velocity  y-velocity  z-velocity      energy           k       omega     time/iter
   606  1.3642e-02  4.3311e-03  7.7729e-03  3.5491e-01  1.3637e-02  8.0473e-04  7.7854e-04  0:02:32 1394
   607  1.3439e-02  4.3345e-03  7.9168e-03  3.5637e-01  1.3434e-02  8.1170e-04  7.8649e-04  0:02:02 1393
   608  1.3008e-02  4.3385e-03  8.1212e-03  3.6281e-01  1.3003e-02  8.1312e-04  7.8160e-04  0:01:37 1392
   609  1.2290e-02  4.3321e-03  8.2353e-03  3.6351e-01  1.2286e-02  8.2408e-04  7.8660e-04  0:05:56 1391
   610  1.1667e-02  4.2962e-03  8.2701e-03  3.6037e-01  1.1663e-02  8.2919e-04  7.9265e-04  0:04:45 1390
   611  1.1308e-02  4.2788e-03  8.3158e-03  3.5589e-01  1.1304e-02  8.3368e-04  7.9926e-04  0:03:47 1389
   612  1.1190e-02  4.2428e-03  8.3047e-03  3.5402e-01  1.1186e-02  8.3675e-04  7.9625e-04  0:03:02 1388
   613  1.1404e-02  4.2089e-03  8.2236e-03  3.4880e-01  1.1400e-02  8.1982e-04  7.9606e-04  0:02:25 1387
   614  1.1892e-02  4.1741e-03  8.1216e-03  3.4371e-01  1.1888e-02  8.2082e-04  7.8963e-04  0:01:56 1386
   615  1.2361e-02  4.1231e-03  7.9996e-03  3.4347e-01  1.2357e-02  8.0863e-04  7.7408e-04  0:06:10 1385
   616  1.2843e-02  4.0967e-03  7.9202e-03  3.3815e-01  1.2839e-02  7.8930e-04  7.7467e-04  0:04:56 1384

  iter  continuity  x-velocity  y-velocity  z-velocity      energy           k       omega     time/iter
   617  1.3062e-02  4.0956e-03  7.8859e-03  3.2985e-01  1.3057e-02  7.8064e-04  7.6059e-04  0:03:56 1383
   618  1.3051e-02  4.1622e-03  7.8896e-03  3.2330e-01  1.3046e-02  7.6537e-04  7.4852e-04  0:03:09 1382
   619  1.2761e-02  4.2955e-03  7.9395e-03  3.1691e-01  1.2756e-02  7.5927e-04  7.4761e-04  0:02:31 1381
   620  1.2328e-02  4.3913e-03  8.0158e-03  3.1268e-01  1.2323e-02  7.4776e-04  7.3674e-04  0:02:01 1380
   621  1.1854e-02  4.5097e-03  8.1726e-03  3.1329e-01  1.1849e-02  7.4005e-04  7.3032e-04  0:01:37 1379
   622  1.1306e-02  4.6365e-03  8.2399e-03  3.1371e-01  1.1302e-02  7.4303e-04  7.3796e-04  0:05:53 1378
   623  1.1119e-02  4.7653e-03  8.2529e-03  3.1672e-01  1.1114e-02  7.4356e-04  7.4394e-04  0:04:42 1377
   624  1.1419e-02  4.8013e-03  8.2853e-03  3.2309e-01  1.1414e-02  7.4239e-04  7.5242e-04  0:03:45 1376
   625  1.2340e-02  4.8102e-03  8.2292e-03  3.3346e-01  1.2335e-02  7.5104e-04  7.6509e-04  0:03:00 1375
   626  1.3433e-02  4.8058e-03  8.1979e-03  3.4441e-01  1.3428e-02  7.7094e-04  7.7147e-04  0:02:24 1374
[...]
  1838  1.4040e-02  5.2468e-03  9.0057e-03  6.2739e-01  1.4034e-02  7.2956e-04  7.9352e-04  0:00:14  162
  1839  1.4984e-02  5.1929e-03  8.9692e-03  6.4363e-01  1.4979e-02  7.4789e-04  8.0812e-04  0:00:11  161
  1840  1.5648e-02  5.1559e-03  8.9527e-03  6.5918e-01  1.5643e-02  7.5516e-04  8.2545e-04  0:00:41  160
  1841  1.5857e-02  5.0592e-03  8.9701e-03  6.7325e-01  1.5851e-02  7.6256e-04  8.2412e-04  0:00:32  159
  1842  1.5971e-02  4.9904e-03  9.0585e-03  6.8463e-01  1.5965e-02  7.8766e-04  8.3137e-04  0:00:26  158
  1843  1.5634e-02  4.9480e-03  9.1908e-03  6.8685e-01  1.5629e-02  8.0077e-04  8.3672e-04  0:00:20  157
  1844  1.4913e-02  4.9331e-03  9.3840e-03  6.9722e-01  1.4908e-02  7.9268e-04  8.3167e-04  0:00:16  156
  1845  1.4075e-02  4.9066e-03  9.5337e-03  6.9622e-01  1.4070e-02  8.0680e-04  8.3681e-04  0:00:13  155
  1846  1.3136e-02  4.8375e-03  9.5465e-03  6.9197e-01  1.3132e-02  8.1487e-04  8.3431e-04  0:00:10  154
  1847  1.2661e-02  4.7903e-03  9.5476e-03  6.9017e-01  1.2656e-02  8.2059e-04  8.4466e-04  0:00:39  153
  1848  1.2506e-02  4.7543e-03  9.5361e-03  6.9169e-01  1.2502e-02  8.1815e-04  8.4615e-04  0:00:31  152

  iter  continuity  x-velocity  y-velocity  z-velocity      energy           k       omega     time/iter
  1849  1.2711e-02  4.6926e-03  9.3973e-03  6.8197e-01  1.2707e-02  7.9670e-04  8.3557e-04  0:00:24  151
  1850  1.3184e-02  4.6466e-03  9.2273e-03  6.7004e-01  1.3179e-02  7.9922e-04  8.2852e-04  0:00:19  150
  1851  1.3735e-02  4.5871e-03  9.0654e-03  6.6227e-01  1.3730e-02  7.7592e-04  8.1012e-04  0:00:15  149
  1852  1.4191e-02  4.5310e-03  8.9198e-03  6.5112e-01  1.4186e-02  7.6616e-04  8.0765e-04  0:00:12  148
  1853  1.4481e-02  4.5171e-03  8.8424e-03  6.3063e-01  1.4476e-02  7.5295e-04  7.9696e-04  0:00:39  147
  1854  1.4381e-02  4.5659e-03  8.8641e-03  6.1235e-01  1.4375e-02  7.3378e-04  7.7259e-04  0:00:31  146
  1855  1.3889e-02  4.7098e-03  8.8466e-03  5.9765e-01  1.3883e-02  7.3138e-04  7.7273e-04  0:00:25  145
  1856  1.3332e-02  4.8313e-03  8.9127e-03  5.8321e-01  1.3327e-02  7.1540e-04  7.6611e-04  0:00:20  144
  1857  1.2719e-02  4.9407e-03  9.0280e-03  5.7689e-01  1.2714e-02  7.0400e-04  7.5540e-04  0:00:16  143
  1858  1.2208e-02  5.0528e-03  9.1134e-03  5.7495e-01  1.2203e-02  7.0985e-04  7.6035e-04  0:00:12  142
  1859  1.1946e-02  5.2033e-03  9.1043e-03  5.7459e-01  1.1941e-02  7.1347e-04  7.6697e-04  0:00:10  141

  iter  continuity  x-velocity  y-velocity  z-velocity      energy           k       omega     time/iter
  1860  1.2163e-02  5.2491e-03  9.1125e-03  5.8141e-01  1.2157e-02  7.1040e-04  7.7543e-04  0:00:36  140
  1861  1.3109e-02  5.2427e-03  9.0760e-03  5.9233e-01  1.3104e-02  7.1832e-04  7.9111e-04  0:00:28  139
  1862  1.4297e-02  5.2442e-03  8.9840e-03  6.0545e-01  1.4292e-02  7.3715e-04  7.9914e-04  0:00:23  138
  1863  1.5162e-02  5.1855e-03  8.9792e-03  6.3020e-01  1.5156e-02  7.4886e-04  8.1532e-04  0:00:18  137
  1864  1.5688e-02  5.1429e-03  8.9286e-03  6.4976e-01  1.5683e-02  7.5842e-04  8.2268e-04  0:00:14  136
  1865  1.5885e-02  5.0365e-03  8.9895e-03  6.6764e-01  1.5880e-02  7.6430e-04  8.2254e-04  0:00:11  135
  1866  1.5940e-02  4.9781e-03  9.0680e-03  6.8027e-01  1.5935e-02  7.9684e-04  8.3282e-04  0:00:36  134
  1867  1.5472e-02  4.9462e-03  9.2326e-03  6.8828e-01  1.5466e-02  7.9949e-04  8.3725e-04  0:00:28  133
  1868  1.4754e-02  4.9260e-03  9.4277e-03  7.0680e-01  1.4749e-02  7.9685e-04  8.2763e-04  0:00:23  132
  1869  1.3820e-02  4.8977e-03  9.5327e-03  7.1779e-01  1.3815e-02  8.1599e-04  8.3894e-04  0:00:18  131
  1870  1.2986e-02  4.8197e-03  9.5448e-03  7.1842e-01  1.2981e-02  8.1096e-04  8.3368e-04  0:00:14  130

  iter  continuity  x-velocity  y-velocity  z-velocity      energy           k       omega     time/iter
  1871  1.2559e-02  4.7817e-03  9.5426e-03  7.1911e-01  1.2554e-02  8.1781e-04  8.4430e-04  0:00:11  129
  1872  1.2460e-02  4.7358e-03  9.4982e-03  7.2142e-01  1.2456e-02  8.1579e-04  8.4123e-04  0:00:35  128
  1873  1.2794e-02  4.6854e-03  9.3528e-03  7.1205e-01  1.2790e-02  7.9988e-04  8.3449e-04  0:00:27  127
  1874  1.3328e-02  4.6344e-03  9.1810e-03  7.0318e-01  1.3324e-02  7.9445e-04  8.2410e-04  0:00:22  126
  1875  1.3825e-02  4.5694e-03  9.0173e-03  7.0041e-01  1.3820e-02  7.7207e-04  8.1157e-04  0:00:17  125
  1876  1.4263e-02  4.5254e-03  8.8903e-03  6.9070e-01  1.4258e-02  7.6499e-04  8.0848e-04  0:00:14  124
  1877  1.4464e-02  4.5194e-03  8.8365e-03  6.7313e-01  1.4458e-02  7.4784e-04  7.8920e-04  0:00:11  123
  1878  1.4295e-02  4.5931e-03  8.8485e-03  6.6159e-01  1.4290e-02  7.3199e-04  7.7381e-04  0:00:09  122
  1879  1.3767e-02  4.7410e-03  8.8577e-03  6.4209e-01  1.3761e-02  7.3086e-04  7.6939e-04  0:00:31  121
  1880  1.3179e-02  4.8492e-03  8.9203e-03  6.3561e-01  1.3173e-02  7.1132e-04  7.5942e-04  0:00:25  120
  1881  1.2602e-02  4.9637e-03  9.0557e-03  6.3543e-01  1.2596e-02  7.0474e-04  7.5433e-04  0:00:20  119

  iter  continuity  x-velocity  y-velocity  z-velocity      energy           k       omega     time/iter
  1882  1.2091e-02  5.0798e-03  9.1172e-03  6.3558e-01  1.2086e-02  7.1077e-04  7.6201e-04  0:00:16  118
  1883  1.1936e-02  5.2168e-03  9.0951e-03  6.3982e-01  1.1931e-02  7.1335e-04  7.6578e-04  0:00:12  117
  1884  1.2319e-02  5.2530e-03  9.1131e-03  6.5220e-01  1.2314e-02  7.1237e-04  7.7843e-04  0:00:10  116
  1885  1.3346e-02  5.2436e-03  9.0516e-03  6.5639e-01  1.3341e-02  7.2119e-04  7.9111e-04  0:00:08  115
  1886  1.4529e-02  5.2351e-03  8.9787e-03  6.6884e-01  1.4524e-02  7.4356e-04  7.9718e-04  0:00:29  114
  1887  1.5313e-02  5.1877e-03  8.9871e-03  6.9447e-01  1.5308e-02  7.5216e-04  8.1949e-04  0:00:23  113
  1888  1.5709e-02  5.1292e-03  8.9209e-03  7.1515e-01  1.5703e-02  7.6375e-04  8.2270e-04  0:00:18  112
  1889  1.5928e-02  5.0262e-03  9.0038e-03  7.2908e-01  1.5922e-02  7.6588e-04  8.2294e-04  0:00:14  111
  1890  1.5908e-02  4.9705e-03  9.0859e-03  7.3622e-01  1.5902e-02  7.9992e-04  8.3380e-04  0:00:11  110
  1891  1.5339e-02  4.9452e-03  9.2805e-03  7.3652e-01  1.5333e-02  7.9695e-04  8.3371e-04  0:00:09  109
  1892  1.4618e-02  4.9217e-03  9.4750e-03  7.5242e-01  1.4612e-02  7.9761e-04  8.2569e-04  0:00:07  108

  iter  continuity  x-velocity  y-velocity  z-velocity      energy           k       omega     time/iter
  1893  1.3600e-02  4.8851e-03  9.5395e-03  7.5511e-01  1.3595e-02  8.2041e-04  8.3717e-04  0:00:06  107
  1894  1.2861e-02  4.8073e-03  9.5501e-03  7.5529e-01  1.2856e-02  8.1125e-04  8.3616e-04  0:00:26  106
  1895  1.2506e-02  4.7750e-03  9.5466e-03  7.6333e-01  1.2502e-02  8.1905e-04  8.4663e-04  0:00:20  105
  1896  1.2500e-02  4.7188e-03  9.4692e-03  7.6948e-01  1.2495e-02  8.0962e-04  8.3545e-04  0:00:16  104
  1897  1.2893e-02  4.6738e-03  9.3174e-03  7.6106e-01  1.2888e-02  7.9996e-04  8.3598e-04  0:00:13  103
  1898  1.3475e-02  4.6218e-03  9.1576e-03  7.4887e-01  1.3470e-02  7.8939e-04  8.2185e-04  0:00:10  102
  1899  1.3970e-02  4.5587e-03  8.9934e-03  7.4935e-01  1.3965e-02  7.6991e-04  8.1271e-04  0:00:08  101
  1900  1.4377e-02  4.5222e-03  8.8823e-03  7.3511e-01  1.4372e-02  7.6358e-04  8.0712e-04  0:00:06  100
  1901  1.4459e-02  4.5294e-03  8.8443e-03  7.1395e-01  1.4453e-02  7.4329e-04  7.8396e-04  0:00:25   99
  1902  1.4194e-02  4.6232e-03  8.8400e-03  7.0033e-01  1.4189e-02  7.3304e-04  7.7492e-04  0:00:20   98
  1903  1.3664e-02  4.7731e-03  8.8787e-03  6.7688e-01  1.3658e-02  7.2755e-04  7.6892e-04  0:00:16   97

  iter  continuity  x-velocity  y-velocity  z-velocity      energy           k       omega     time/iter
  1904  1.3013e-02  4.8677e-03  8.9425e-03  6.7140e-01  1.3007e-02  7.0775e-04  7.5635e-04  0:00:12   96
  1905  1.2511e-02  4.9852e-03  9.0863e-03  6.7193e-01  1.2506e-02  7.0709e-04  7.5449e-04  0:00:10   95
  1906  1.1996e-02  5.1147e-03  9.1204e-03  6.6984e-01  1.1991e-02  7.1094e-04  7.6401e-04  0:00:08   94
  1907  1.1948e-02  5.2269e-03  9.0949e-03  6.7754e-01  1.1943e-02  7.1203e-04  7.6743e-04  0:00:06   93
  1908  1.2508e-02  5.2444e-03  9.1077e-03  6.8196e-01  1.2503e-02  7.1263e-04  7.8013e-04  0:00:05   92
  1909  1.3613e-02  5.2399e-03  9.0264e-03  6.9419e-01  1.3607e-02  7.2249e-04  7.9274e-04  0:00:22   91
  1910  1.4740e-02  5.2167e-03  8.9693e-03  7.0637e-01  1.4735e-02  7.4607e-04  8.0062e-04  0:00:17   90
  1911  1.5469e-02  5.1798e-03  8.9867e-03  7.3070e-01  1.5464e-02  7.5308e-04  8.1996e-04  0:00:14   89
  1912  1.5755e-02  5.1076e-03  8.9343e-03  7.4776e-01  1.5749e-02  7.6468e-04  8.2244e-04  0:00:11   88
  1913  1.5957e-02  5.0087e-03  9.0267e-03  7.6202e-01  1.5952e-02  7.7264e-04  8.2622e-04  0:00:09   87
  1914  1.5838e-02  4.9610e-03  9.1171e-03  7.7202e-01  1.5832e-02  8.0102e-04  8.3360e-04  0:00:07   86

  iter  continuity  x-velocity  y-velocity  z-velocity      energy           k       omega     time/iter
  1915  1.5199e-02  4.9424e-03  9.3200e-03  7.7266e-01  1.5193e-02  7.9307e-04  8.3277e-04  0:00:05   85
  1916  1.4441e-02  4.9161e-03  9.5136e-03  7.9008e-01  1.4436e-02  8.0032e-04  8.2945e-04  0:00:21   84
  1917  1.3406e-02  4.8683e-03  9.5471e-03  7.9464e-01  1.3401e-02  8.2235e-04  8.3498e-04  0:00:17   83
  1918  1.2793e-02  4.8005e-03  9.5630e-03  7.9537e-01  1.2789e-02  8.1839e-04  8.3856e-04  0:00:13   82
  1919  1.2500e-02  4.7710e-03  9.5604e-03  8.0867e-01  1.2496e-02  8.2275e-04  8.4804e-04  0:00:10   81
  1920  1.2560e-02  4.7053e-03  9.4501e-03  8.1656e-01  1.2556e-02  8.0269e-04  8.3256e-04  0:00:08   80
  1921  1.2995e-02  4.6615e-03  9.2853e-03  8.0206e-01  1.2990e-02  8.0235e-04  8.3318e-04  0:00:06   79
  1922  1.3597e-02  4.6097e-03  9.1356e-03  7.9266e-01  1.3592e-02  7.8601e-04  8.2064e-04  0:00:05   78
  1923  1.4089e-02  4.5471e-03  8.9679e-03  7.8952e-01  1.4084e-02  7.6976e-04  8.1311e-04  0:00:19   77
  1924  1.4469e-02  4.5172e-03  8.8707e-03  7.7144e-01  1.4463e-02  7.6228e-04  8.0384e-04  0:00:15   76
  1925  1.4430e-02  4.5345e-03  8.8553e-03  7.5121e-01  1.4425e-02  7.4045e-04  7.7639e-04  0:00:12   75

  iter  continuity  x-velocity  y-velocity  z-velocity      energy           k       omega     time/iter
  1926  1.4098e-02  4.6544e-03  8.8361e-03  7.4402e-01  1.4093e-02  7.3373e-04  7.7299e-04  0:00:10   74
  1927  1.3550e-02  4.7998e-03  8.8978e-03  7.2703e-01  1.3545e-02  7.2465e-04  7.6749e-04  0:00:08   73
  1928  1.2896e-02  4.8937e-03  8.9818e-03  7.2011e-01  1.2891e-02  7.0607e-04  7.5457e-04  0:00:06   72
  1929  1.2410e-02  5.0105e-03  9.1060e-03  7.1817e-01  1.2405e-02  7.0906e-04  7.5749e-04  0:00:05   71
  1930  1.1983e-02  5.1568e-03  9.1214e-03  7.0930e-01  1.1978e-02  7.1193e-04  7.6441e-04  0:00:04   70
  1931  1.1997e-02  5.2400e-03  9.1035e-03  7.1437e-01  1.1992e-02  7.1110e-04  7.6970e-04  0:00:17   69
  1932  1.2729e-02  5.2471e-03  9.1086e-03  7.1376e-01  1.2724e-02  7.1261e-04  7.8458e-04  0:00:13   68
  1933  1.3890e-02  5.2457e-03  9.0159e-03  7.1933e-01  1.3885e-02  7.2473e-04  7.9112e-04  0:00:10   67
  1934  1.4878e-02  5.2027e-03  8.9656e-03  7.2979e-01  1.4872e-02  7.4803e-04  8.0492e-04  0:00:08   66
  1935  1.5597e-02  5.1642e-03  8.9745e-03  7.4672e-01  1.5592e-02  7.5402e-04  8.2377e-04  0:00:06   65
  1936  1.5819e-02  5.0752e-03  8.9575e-03  7.5879e-01  1.5814e-02  7.6204e-04  8.2456e-04  0:00:05   64

  iter  continuity  x-velocity  y-velocity  z-velocity      energy           k       omega     time/iter
  1937  1.5960e-02  4.9968e-03  9.0506e-03  7.7468e-01  1.5955e-02  7.8076e-04  8.2936e-04  0:00:04   63
  1938  1.5706e-02  4.9516e-03  9.1608e-03  7.7536e-01  1.5700e-02  8.0002e-04  8.3470e-04  0:00:16   62
  1939  1.5014e-02  4.9367e-03  9.3538e-03  7.8834e-01  1.5009e-02  7.9118e-04  8.3381e-04  0:00:12   61
  1940  1.4218e-02  4.9114e-03  9.5255e-03  7.8785e-01  1.4213e-02  8.0129e-04  8.3421e-04  0:00:10   60
  1941  1.3237e-02  4.8501e-03  9.5429e-03  7.8772e-01  1.3232e-02  8.1770e-04  8.3267e-04  0:00:08   59
  1942  1.2727e-02  4.7914e-03  9.5530e-03  7.8857e-01  1.2722e-02  8.2020e-04  8.4196e-04  0:00:06   58
  1943  1.2509e-02  4.7627e-03  9.5468e-03  7.9447e-01  1.2505e-02  8.1958e-04  8.4721e-04  0:00:05   57
  1944  1.2649e-02  4.6952e-03  9.4225e-03  7.9392e-01  1.2645e-02  7.9718e-04  8.3339e-04  0:00:04   56
  1945  1.3099e-02  4.6509e-03  9.2519e-03  7.7311e-01  1.3094e-02  8.0067e-04  8.2960e-04  0:00:14   55
  1946  1.3681e-02  4.5967e-03  9.0958e-03  7.6448e-01  1.3677e-02  7.7984e-04  8.1523e-04  0:00:11   54
  1947  1.4148e-02  4.5321e-03  8.9392e-03  7.5318e-01  1.4143e-02  7.6659e-04  8.1064e-04  0:00:09   53

  iter  continuity  x-velocity  y-velocity  z-velocity      energy           k       omega     time/iter
  1948  1.4489e-02  4.5131e-03  8.8547e-03  7.3031e-01  1.4483e-02  7.5698e-04  8.0128e-04  0:00:07   52
  1949  1.4405e-02  4.5489e-03  8.8585e-03  7.1497e-01  1.4399e-02  7.3509e-04  7.7480e-04  0:00:05   51
  1950  1.3964e-02  4.6868e-03  8.8361e-03  7.0262e-01  1.3959e-02  7.3187e-04  7.7224e-04  0:00:04   50
  1951  1.3414e-02  4.8184e-03  8.9061e-03  6.8332e-01  1.3408e-02  7.1923e-04  7.6727e-04  0:00:03   49
  1952  1.2791e-02  4.9196e-03  9.0107e-03  6.7221e-01  1.2786e-02  7.0422e-04  7.5541e-04  0:00:03   48
  1953  1.2297e-02  5.0373e-03  9.1100e-03  6.6884e-01  1.2292e-02  7.0916e-04  7.5967e-04  0:00:11   47
  1954  1.1961e-02  5.1915e-03  9.1137e-03  6.6535e-01  1.1956e-02  7.1239e-04  7.6592e-04  0:00:09   46
  1955  1.2083e-02  5.2490e-03  9.1104e-03  6.6888e-01  1.2078e-02  7.1060e-04  7.7241e-04  0:00:07   45
  1956  1.2946e-02  5.2464e-03  9.0954e-03  6.7347e-01  1.2941e-02  7.1536e-04  7.9022e-04  0:00:05   44
  1957  1.4116e-02  5.2481e-03  9.0005e-03  6.8254e-01  1.4111e-02  7.3220e-04  7.9545e-04  0:00:04   43
  1958  1.5032e-02  5.1902e-03  8.9752e-03  6.9790e-01  1.5027e-02  7.4794e-04  8.1157e-04  0:00:03   42

  iter  continuity  x-velocity  y-velocity  z-velocity      energy           k       omega     time/iter
  1959  1.5658e-02  5.1541e-03  8.9453e-03  7.1481e-01  1.5653e-02  7.5522e-04  8.2521e-04  0:00:03   41
  1960  1.5858e-02  5.0531e-03  8.9773e-03  7.2892e-01  1.5852e-02  7.6291e-04  8.2419e-04  0:00:02   40
  1961  1.5962e-02  4.9896e-03  9.0628e-03  7.3864e-01  1.5957e-02  7.9164e-04  8.3204e-04  0:00:09   39
  1962  1.5588e-02  4.9480e-03  9.2070e-03  7.4296e-01  1.5582e-02  8.0047e-04  8.3864e-04  0:00:07   38
  1963  1.4858e-02  4.9316e-03  9.4008e-03  7.5652e-01  1.4853e-02  7.9388e-04  8.3051e-04  0:00:06   37
  1964  1.3991e-02  4.9046e-03  9.5354e-03  7.6098e-01  1.3986e-02  8.1007e-04  8.3809e-04  0:00:04   36
  1965  1.3094e-02  4.8318e-03  9.5487e-03  7.5425e-01  1.3089e-02  8.1304e-04  8.3236e-04  0:00:03   35
  1966  1.2620e-02  4.7870e-03  9.5471e-03  7.5186e-01  1.2615e-02  8.2030e-04  8.4532e-04  0:00:03   34
  1967  1.2477e-02  4.7470e-03  9.5243e-03  7.5280e-01  1.2472e-02  8.1744e-04  8.4365e-04  0:00:02   33
  1968  1.2734e-02  4.6899e-03  9.3808e-03  7.4305e-01  1.2730e-02  7.9823e-04  8.3440e-04  0:00:08   32
  1969  1.3235e-02  4.6416e-03  9.2084e-03  7.2730e-01  1.3231e-02  7.9807e-04  8.2748e-04  0:00:06   31

  iter  continuity  x-velocity  y-velocity  z-velocity      energy           k       omega     time/iter
  1970  1.3766e-02  4.5803e-03  9.0454e-03  7.2104e-01  1.3761e-02  7.7506e-04  8.0997e-04  0:00:05   30
  1971  1.4219e-02  4.5293e-03  8.9073e-03  7.1034e-01  1.4214e-02  7.6602e-04  8.0804e-04  0:00:04   29
  1972  1.4477e-02  4.5169e-03  8.8356e-03  6.9066e-01  1.4471e-02  7.5155e-04  7.9401e-04  0:00:03   28
  1973  1.4360e-02  4.5745e-03  8.8612e-03  6.7824e-01  1.4354e-02  7.3289e-04  7.7300e-04  0:00:02   27
  1974  1.3847e-02  4.7182e-03  8.8484e-03  6.6525e-01  1.3842e-02  7.3158e-04  7.7167e-04  0:00:02   26
  1975  1.3290e-02  4.8341e-03  8.9135e-03  6.5382e-01  1.3285e-02  7.1366e-04  7.6600e-04  0:00:01   25
  1976  1.2679e-02  4.9465e-03  9.0371e-03  6.4830e-01  1.2674e-02  7.0440e-04  7.5427e-04  0:00:06   24
  1977  1.2174e-02  5.0589e-03  9.1153e-03  6.4724e-01  1.2169e-02  7.1029e-04  7.6063e-04  0:00:04   23
  1978  1.1936e-02  5.2056e-03  9.0991e-03  6.4933e-01  1.1931e-02  7.1397e-04  7.6640e-04  0:00:03   22
  1979  1.2209e-02  5.2481e-03  9.1130e-03  6.5727e-01  1.2204e-02  7.1147e-04  7.7595e-04  0:00:03   21
  1980  1.3191e-02  5.2402e-03  9.0652e-03  6.6670e-01  1.3186e-02  7.1994e-04  7.9108e-04  0:00:02   20

  iter  continuity  x-velocity  y-velocity  z-velocity      energy           k       omega     time/iter
  1981  1.4378e-02  5.2409e-03  8.9781e-03  6.8101e-01  1.4373e-02  7.4020e-04  7.9773e-04  0:00:02   19
  1982  1.5215e-02  5.1837e-03  8.9807e-03  7.0288e-01  1.5210e-02  7.5038e-04  8.1753e-04  0:00:01   18
  1983  1.5695e-02  5.1369e-03  8.9215e-03  7.2517e-01  1.5690e-02  7.6089e-04  8.2210e-04  0:00:01   17
  1984  1.5897e-02  5.0300e-03  8.9944e-03  7.4198e-01  1.5892e-02  7.6496e-04  8.2272e-04  0:00:04   16
  1985  1.5923e-02  4.9741e-03  9.0688e-03  7.5100e-01  1.5917e-02  7.9822e-04  8.3395e-04  0:00:03   15
  1986  1.5419e-02  4.9446e-03  9.2462e-03  7.8038e-01  1.5413e-02  7.9877e-04  8.3623e-04  0:00:02   14
  1987  1.4705e-02  4.9240e-03  9.4427e-03  8.5021e-01  1.4699e-02  7.9735e-04  8.2645e-04  0:00:02   13
  1988  1.3740e-02  4.8934e-03  9.5310e-03  8.6552e-01  1.3735e-02  8.1785e-04  8.3839e-04  0:00:01   12
  1989  1.2926e-02  4.8141e-03  9.5388e-03  8.6097e-01  1.2921e-02  8.1058e-04  8.3494e-04  0:00:01   11
  1990  1.2521e-02  4.7780e-03  9.5338e-03  8.9735e-01  1.2517e-02  8.1757e-04  8.4449e-04  0:00:01   10
  1991  1.2466e-02  4.7285e-03  9.4776e-03  9.4108e-01  1.2461e-02  8.1368e-04  8.3948e-04  0:00:02    9

  iter  continuity  x-velocity  y-velocity  z-velocity      energy           k       omega     time/iter
  1992  1.2824e-02  4.6813e-03  9.3332e-03  9.4741e-01  1.2819e-02  7.9955e-04  8.3409e-04  0:00:02    8
  1993  1.3372e-02  4.6277e-03  9.1626e-03  9.4585e-01  1.3368e-02  7.9249e-04  8.2288e-04  0:00:01    7
  1994  1.3868e-02  4.5635e-03  9.0000e-03  9.4144e-01  1.3863e-02  7.7099e-04  8.1117e-04  0:00:01    6
  1995  1.4292e-02  4.5225e-03  8.8781e-03  9.2377e-01  1.4287e-02  7.6449e-04  8.0783e-04  0:00:01    5
  1996  1.4456e-02  4.5212e-03  8.8318e-03  8.9541e-01  1.4450e-02  7.4607e-04  7.8744e-04  0:00:00    4
  1997  1.4251e-02  4.6015e-03  8.8381e-03  8.7122e-01  1.4245e-02  7.3205e-04  7.7413e-04  0:00:01    3
  1998  1.3724e-02  4.7515e-03  8.8591e-03  8.5103e-01  1.3719e-02  7.3020e-04  7.6836e-04  0:00:00    2
  1999  1.3117e-02  4.8566e-03  8.9210e-03  8.5538e-01  1.3111e-02  7.1007e-04  7.5785e-04  0:00:00    1
  2000  1.2562e-02  4.9720e-03  9.0614e-03  8.7242e-01  1.2557e-02  7.0516e-04  7.5404e-04  0:00:00    0

> 
adjoint/                parallel/               server/
define/                 parametric-study/       solve/
display/                plot/                   surface/
exit                    preferences/            turbo-workflow/
file/                   print-license-usage     views/
mesh/                   report/

> /file/write-case-data project1
Fast-loading "C:\PROGRA~1\ANSYSI~1\v231\fluent\fluent23.1.0\\addons\afd\lib\hdfio.bin"
Done.

Writing to Engs-30669:"C:\Users\kebl7595\Desktop\CFD\Runs\Flap\Shallower Aspect Ratio\6 degrees\project1.cas.h5" in NODE0 mode and compression level 1 ...
       19422 cells,     1 zone  ...
       65325 faces,     7 zones ...
       26676 nodes,     1 zone  ...
  Done.
Done.

Writing to Engs-30669:"C:\Users\kebl7595\Desktop\CFD\Runs\Flap\Shallower Aspect Ratio\6 degrees\project1.dat.h5" in NODE0 mode and compression level 1 ...
  Writing results.
Done.

> /file/export/ascii "./surface.dat" wing () no pressure mach-number quit no

Writing "./surface.dat"...

Writing information to ascii file ...
Done.


> /report/forces/wall-forces y -0.10453 -0.99452 0 y "Lift"

> /report/forces/wall-forces y 0.99452 -0.10453 0 y "Drag"

> /exit

Posting ANSYS Product Improvement Program performance data 
Done.
Auto-Transcript Stop Time:  11:42:10, 22 May 2024 GMT Daylight Time 
Total Transcript Time: 5 Minute 7 Second.
