Auto-Transcript Start Time:  12:38:28, 22 May 2024 GMT Daylight Time 
Current Directory: "C:\Users\kebl7595\Desktop\CFD\Runs\Flap\Re 3e5\Different Flap\Comically Large, AR = 1"

              Welcome to ANSYS Fluent 2023 R1

              Copyright 1987-2023 ANSYS, Inc. All Rights Reserved.
              Unauthorized use, distribution or duplication is prohibited.
              This product is subject to U.S. laws governing export and re-export.
              For full Legal Notice, see documentation.

Build Time: Nov 28 2022 09:52:02 EST  Build Id: 10208  
 
Connected License Server List:	1055@ansyslic.eng.ox.ac.uk

*********************************************
Info: Your license enables 4-way parallel execution.
For faster simulations, please start the application with the appropriate parallel options.
*********************************************


     --------------------------------------------------------------
     This is an academic version of ANSYS FLUENT. Usage of this product
     license is limited to the terms and conditions specified in your ANSYS
     license form, additional terms section.
     --------------------------------------------------------------
Host spawning Node 0 on machine "Engs-30669" (win64).

------------------------------------------------------------------------------------
ID    Hostname    Core  O.S.         PID    Vendor                                 
------------------------------------------------------------------------------------
n0    Engs-30669  1/32  Windows-x64  39664  13th Gen Intel(R) Core(TM) i9-13900    
host  Engs-30669        Windows-x64  18112  13th Gen Intel(R) Core(TM) i9-13900    

MPI Option Selected: intel
------------------------------------------------------------------------------------

Cleanup script file is C:\\Users\\kebl7595\\Desktop\\CFD\\Runs\\Flap\\Re 3e5\\Different Flap\\Comically Large, AR = 1\\cleanup-fluent-Engs-30669-18112.bat

Posting ANSYS Product Improvement Program startup data
Done.

Reading journal file C:/Users/kebl7595/Desktop/CFD/Runs/Flap/Re 3e5/Different Flap/Comically Large, AR = 1/project1.jou...

> /file/set-batch-options no no no 

> 
define/                 parametric-study/       solve/
display/                plot/                   surface/
exit                    preferences/            switch-to-meshing-mode
file/                   print-license-usage     turbo-workflow/
mesh/                   report/                 views/
parallel/               server/

> /file/import/cgns/mesh  "./project1.cgns"Note: Rank = 0: Process affinity not being set (6).

Importing "./project1.cgns"

Opening library "C:\\PROGRA~1\\ANSYSI~1\\v231\\fluent\\fluent23.1.0\\vki\\win64\\devtools4.4.6.dll"... done.

Read    75840 nodes
   55572 hexahedral cells, zone  1
   39664 quadrilateral wall faces, zone  2.
  146410 quadrilateral interior faces, zone  3.
     474 quadrilateral interface faces, zone  4.

Building...
     mesh
     materials,
     interface,
     domains,
     zones,
	interface-default_subface
	default_interior-1
	default_subface
	default
     parallel,
The automatic selection for flux type has changed to Rhie-Chow: momentum based.

Done.


> 
adjoint/                parallel/               server/
define/                 parametric-study/       solve/
display/                plot/                   surface/
exit                    preferences/            turbo-workflow/
file/                   print-license-usage     views/
mesh/                   report/

> /define/models/solver/density-based-implicit yes

> 
adjoint/                parallel/               server/
define/                 parametric-study/       solve/
display/                plot/                   surface/
exit                    preferences/            turbo-workflow/
file/                   print-license-usage     views/
mesh/                   report/

> /define/models/energy? yes yes invalid command [yes]
yes

> /define/models/viscous/kw-standard? yes

> 
adjoint/                parallel/               server/
define/                 parametric-study/       solve/
display/                plot/                   surface/
exit                    preferences/            turbo-workflow/
file/                   print-license-usage     views/
mesh/                   report/

> /define/materials/change-create air air air is a fluid
yes 
Density
ideal-gas no data required.

no no no no no no

> 
adjoint/                parallel/               server/
define/                 parametric-study/       solve/
display/                plot/                   surface/
exit                    preferences/            turbo-workflow/
file/                   print-license-usage     views/
mesh/                   report/

> /mesh/modify-zones/sep-face-zone-angle 2 90 yes

 18524 faces in contiguous region 0
 1071 faces in contiguous region 1
 618 faces in contiguous region 2
 18524 faces in contiguous region 3
 927 faces in contiguous region 4
 Separates zone 2 into 5 zone(s).
Updating new zone information...
   created new zone default_subface:009 from default_subface
   created new zone default_subface:008 from default_subface
   created new zone default_subface:007 from default_subface
   created new zone default_subface:006 from default_subface
done.

> 
adjoint/                parallel/               server/
define/                 parametric-study/       solve/
display/                plot/                   surface/
exit                    preferences/            turbo-workflow/
file/                   print-license-usage     views/
mesh/                   report/

> /define/boundary-conditions/zone-name  6 wing

> /define/boundary-conditions/zone-name  2 sym1

> /define/boundary-conditions/zone-name  8 sym2

> 
adjoint/                parallel/               server/
define/                 parametric-study/       solve/
display/                plot/                   surface/
exit                    preferences/            turbo-workflow/
file/                   print-license-usage     views/
mesh/                   report/

> /define/boundary-conditions/zone-name  7 far1

> /define/boundary-conditions/zone-name 9 far2

> 
adjoint/                parallel/               server/
define/                 parametric-study/       solve/
display/                plot/                   surface/
exit                    preferences/            turbo-workflow/
file/                   print-license-usage     views/
mesh/                   report/

> /define/boundary-conditions/zone-type  7 pressure-far-field

> /define/boundary-conditions/zone-type 9 pressure-far-field

> /define/boundary-conditions/zone-type  2 symmetry

> /define/boundary-conditions/zone-type  8 symmetry

> 
adjoint/                parallel/               server/
define/                 parametric-study/       solve/
display/                plot/                   surface/
exit                    preferences/            turbo-workflow/
file/                   print-license-usage     views/
mesh/                   report/

> /define/boundary-conditions/pressure-far-field (far2 far1)
far1 no -0.8642 no 0.1 no 300 yes no 0.939693 no -0.342020 no 0. no yes 5 0.02

> /define/boundary-conditions/pressure-far-field (far2 far1)
far2 no -0.8642 no 0.1 no 300 yes no 0.939693 no -0.342020 no 0. no yes 5 0.02

> 
adjoint/                parallel/               server/
define/                 parametric-study/       solve/
display/                plot/                   surface/
exit                    preferences/            turbo-workflow/
file/                   print-license-usage     views/
mesh/                   report/

> /solve/initialize/compute-defaults/pressure-far-field (far2 far1)
far1

> /solve/initialize/initialize-flow

> 
adjoint/                parallel/               server/
define/                 parametric-study/       solve/
display/                plot/                   surface/
exit                    preferences/            turbo-workflow/
file/                   print-license-usage     views/
mesh/                   report/

> /solve/monitors/residual/convergence-criteria 1.e-9 1.e-9 1.e-9 1.e-9 1.e-9 1.e-9 1.e-9

> /solve/iterate 2000

  iter  continuity  x-velocity  y-velocity  z-velocity      energy           k       omega     time/iter
     1  1.0000e+00  1.0000e+00  1.0000e+00  1.0000e+00  1.0000e+00  2.4861e-02  2.8599e-02  0:33:19 1999
     2  5.6014e-01  5.5982e-01  4.7718e-01  1.0000e+00  5.5991e-01  2.1839e-02  2.0727e-02  0:26:38 1998
     3  3.1678e-01  3.2571e-01  2.7931e-01  9.7441e-01  3.1651e-01  1.9433e-02  1.7555e-02  0:27:57 1997
     4  2.0867e-01  1.8596e-01  1.9972e-01  8.4501e-01  2.0842e-01  1.7510e-02  1.5520e-02  0:22:21 1996
     5  1.7096e-01  1.2425e-01  1.6486e-01  8.9493e-01  1.7071e-01  1.5961e-02  1.4243e-02  0:17:53 1995
     6  1.5652e-01  9.4631e-02  1.4604e-01  1.0521e+00  1.5625e-01  1.4638e-02  1.3180e-02  0:14:18 1994
     7  1.4247e-01  7.7261e-02  1.3307e-01  1.2349e+00  1.4220e-01  1.3484e-02  1.2276e-02  0:18:04 1993
     8  1.2511e-01  6.5852e-02  1.2163e-01  1.4385e+00  1.2486e-01  1.2509e-02  1.1459e-02  0:14:27 1992
     9  1.0688e-01  5.7757e-02  1.1203e-01  1.6110e+00  1.0665e-01  1.1696e-02  1.0746e-02  0:11:33 1991
    10  9.5665e-02  5.1446e-02  1.0748e-01  1.7050e+00  9.5462e-02  1.0993e-02  1.0132e-02  0:09:14 1990
    11  8.8646e-02  4.6290e-02  1.0652e-01  1.7415e+00  8.8454e-02  1.0390e-02  9.5892e-03  0:14:01 1989

  iter  continuity  x-velocity  y-velocity  z-velocity      energy           k       omega     time/iter
    12  8.1471e-02  4.2118e-02  1.0515e-01  1.8315e+00  8.1299e-02  9.8606e-03  9.1210e-03  0:11:12 1988
    13  7.6505e-02  3.9210e-02  1.0407e-01  1.9491e+00  7.6351e-02  9.4071e-03  8.6889e-03  0:08:58 1987
    14  7.2808e-02  3.6700e-02  1.0442e-01  2.1563e+00  7.2668e-02  9.0104e-03  8.3116e-03  0:07:10 1986
    15  6.9842e-02  3.4907e-02  1.0486e-01  2.1430e+00  6.9714e-02  8.6735e-03  7.9945e-03  0:12:21 1985
    16  6.6956e-02  3.3029e-02  1.0310e-01  2.0922e+00  6.6835e-02  8.3680e-03  7.6946e-03  0:09:52 1984
    17  6.5036e-02  3.1324e-02  1.0334e-01  2.0070e+00  6.4920e-02  8.0905e-03  7.4340e-03  0:07:54 1983
    18  6.3154e-02  3.0262e-02  1.0256e-01  1.9235e+00  6.3041e-02  7.8519e-03  7.2037e-03  0:06:19 1982
    19  6.1938e-02  2.9177e-02  1.0088e-01  1.8794e+00  6.1827e-02  7.6339e-03  6.9899e-03  0:11:39 1981
    20  6.0867e-02  2.8368e-02  1.0087e-01  1.8978e+00  6.0761e-02  7.4427e-03  6.7943e-03  0:09:19 1980
    21  5.9745e-02  2.7649e-02  1.0060e-01  1.9424e+00  5.9642e-02  7.2819e-03  6.6254e-03  0:07:27 1979
    22  5.9132e-02  2.6920e-02  9.8562e-02  1.9824e+00  5.9031e-02  7.1442e-03  6.4626e-03  0:05:57 1978

  iter  continuity  x-velocity  y-velocity  z-velocity      energy           k       omega     time/iter
    23  5.8426e-02  2.5900e-02  9.7189e-02  2.0017e+00  5.8325e-02  7.0246e-03  6.3329e-03  0:11:21 1977
    24  5.7495e-02  2.5139e-02  9.6291e-02  2.0034e+00  5.7396e-02  6.9204e-03  6.2241e-03  0:09:05 1976
    25  5.6841e-02  2.4418e-02  9.4006e-02  1.9671e+00  5.6742e-02  6.8239e-03  6.1090e-03  0:07:15 1975
    26  5.6295e-02  2.3514e-02  9.1450e-02  1.9136e+00  5.6194e-02  6.7340e-03  5.9959e-03  0:12:23 1974
    27  5.5463e-02  2.2682e-02  8.9805e-02  1.8429e+00  5.5362e-02  6.6566e-03  5.8983e-03  0:09:54 1973
    28  5.4588e-02  2.1805e-02  8.7482e-02  1.7538e+00  5.4486e-02  6.5922e-03  5.8209e-03  0:07:55 1972
    29  5.3801e-02  2.1028e-02  8.4533e-02  1.6553e+00  5.3698e-02  6.5275e-03  5.7290e-03  0:12:54 1971
    30  5.3075e-02  2.0162e-02  8.1995e-02  1.5527e+00  5.2970e-02  6.4665e-03  5.6319e-03  0:10:19 1970
    31  5.2273e-02  1.9319e-02  7.9836e-02  1.4546e+00  5.2164e-02  6.4054e-03  5.5339e-03  0:08:15 1969
    32  5.1385e-02  1.8488e-02  7.7203e-02  1.3619e+00  5.1275e-02  6.3670e-03  5.4595e-03  0:06:36 1968
    33  5.0555e-02  1.7758e-02  7.4491e-02  1.2846e+00  5.0444e-02  6.3377e-03  5.3699e-03  0:11:50 1967

  iter  continuity  x-velocity  y-velocity  z-velocity      energy           k       omega     time/iter
    34  4.9792e-02  1.6993e-02  7.1957e-02  1.2235e+00  4.9679e-02  6.3090e-03  5.2694e-03  0:09:28 1966
    35  4.9132e-02  1.6282e-02  6.9688e-02  1.1688e+00  4.9017e-02  6.2773e-03  5.1601e-03  0:07:34 1965
    36  4.8485e-02  1.5630e-02  6.7508e-02  1.1344e+00  4.8368e-02  6.2677e-03  5.0813e-03  0:12:36 1964
    37  4.7838e-02  1.5111e-02  6.5494e-02  1.1201e+00  4.7722e-02  6.2580e-03  4.9938e-03  0:10:04 1963
    38  4.7259e-02  1.4683e-02  6.3695e-02  1.1205e+00  4.7142e-02  6.2429e-03  4.9051e-03  0:08:03 1962
    39  4.6775e-02  1.4321e-02  6.2171e-02  1.1222e+00  4.6658e-02  6.2288e-03  4.8091e-03  0:12:59 1961
    40  4.6445e-02  1.4063e-02  6.0971e-02  1.1340e+00  4.6327e-02  6.2306e-03  4.7409e-03  0:10:22 1960
    41  4.6185e-02  1.3918e-02  6.0056e-02  1.1485e+00  4.6067e-02  6.2423e-03  4.6784e-03  0:14:50 1959
    42  4.5971e-02  1.3886e-02  5.9414e-02  1.1520e+00  4.5853e-02  6.2534e-03  4.6243e-03  0:11:51 1958
    43  4.5804e-02  1.3935e-02  5.9025e-02  1.0766e+00  4.5687e-02  6.2673e-03  4.5735e-03  0:16:00 1957
    44  4.5693e-02  1.4065e-02  5.8855e-02  9.9685e-01  4.5577e-02  6.2853e-03  4.5322e-03  0:12:48 1956

  iter  continuity  x-velocity  y-velocity  z-velocity      energy           k       omega     time/iter
    45  4.5679e-02  1.4255e-02  5.8871e-02  9.3325e-01  4.5565e-02  6.3041e-03  4.5125e-03  0:16:45 1955
    46  4.5783e-02  1.4490e-02  5.9081e-02  8.8260e-01  4.5670e-02  6.3154e-03  4.5098e-03  0:13:23 1954
    47  4.5957e-02  1.4755e-02  5.9420e-02  8.6884e-01  4.5845e-02  6.3179e-03  4.5060e-03  0:17:13 1953
    48  4.6191e-02  1.5041e-02  5.9813e-02  8.7663e-01  4.6081e-02  6.3059e-03  4.4987e-03  0:13:46 1952
    49  4.6426e-02  1.5289e-02  6.0171e-02  9.0193e-01  4.6318e-02  6.2922e-03  4.4783e-03  0:17:31 1951
    50  4.6650e-02  1.5513e-02  6.0389e-02  9.4255e-01  4.6543e-02  6.2779e-03  4.4594e-03  0:14:00 1950
    51  4.6904e-02  1.5678e-02  6.0565e-02  9.8931e-01  4.6798e-02  6.2630e-03  4.4447e-03  0:17:42 1949
    52  4.7158e-02  1.5762e-02  6.0582e-02  1.0310e+00  4.7052e-02  6.2396e-03  4.4269e-03  0:14:09 1948
    53  4.7389e-02  1.5749e-02  6.0456e-02  1.0972e+00  4.7282e-02  6.2308e-03  4.4086e-03  0:17:48 1947
    54  4.7567e-02  1.5629e-02  6.0239e-02  1.1717e+00  4.7459e-02  6.2204e-03  4.3830e-03  0:14:14 1946
    55  4.7651e-02  1.5393e-02  5.9903e-02  1.2458e+00  4.7541e-02  6.2157e-03  4.3518e-03  0:17:52 1945

  iter  continuity  x-velocity  y-velocity  z-velocity      energy           k       omega     time/iter
    56  4.7588e-02  1.5020e-02  5.9441e-02  1.3351e+00  4.7475e-02  6.2227e-03  4.3080e-03  0:14:17 1944
    57  4.7355e-02  1.4534e-02  5.8819e-02  1.4634e+00  4.7238e-02  6.2326e-03  4.2657e-03  0:17:54 1943
    58  4.7031e-02  1.3958e-02  5.8054e-02  1.6231e+00  4.6910e-02  6.2485e-03  4.2258e-03  0:14:19 1942
    59  4.6598e-02  1.3314e-02  5.7318e-02  1.8897e+00  4.6472e-02  6.2747e-03  4.1908e-03  0:17:55 1941
    60  4.6214e-02  1.2624e-02  5.6620e-02  2.3072e+00  4.6085e-02  6.2994e-03  4.1564e-03  0:14:19 1940
    61  4.5700e-02  1.1929e-02  5.5668e-02  2.9108e+00  4.5567e-02  6.3353e-03  4.1250e-03  0:17:55 1939
    62  4.5120e-02  1.1259e-02  5.4607e-02  3.7572e+00  4.4982e-02  6.3796e-03  4.1014e-03  0:14:20 1938
    63  4.4588e-02  1.0641e-02  5.3434e-02  4.8964e+00  4.4446e-02  6.4244e-03  4.0866e-03  0:17:55 1937
    64  4.4119e-02  1.0128e-02  5.2669e-02  6.3140e+00  4.3976e-02  6.4802e-03  4.0797e-03  0:14:19 1936
    65  4.3562e-02  9.7320e-03  5.1942e-02  7.9598e+00  4.3419e-02  6.5461e-03  4.0776e-03  0:17:54 1935
    66  4.3033e-02  9.4666e-03  5.1315e-02  9.7592e+00  4.2889e-02  6.6250e-03  4.0862e-03  0:14:19 1934

  iter  continuity  x-velocity  y-velocity  z-velocity      energy           k       omega     time/iter
    67  4.2592e-02  9.3417e-03  5.1012e-02  1.1641e+01  4.2448e-02  6.7199e-03  4.1026e-03  0:17:53 1933
    68  4.2234e-02  9.3265e-03  5.1163e-02  1.3473e+01  4.2094e-02  6.8230e-03  4.1283e-03  0:14:18 1932
    69  4.1893e-02  9.3874e-03  5.1608e-02  1.5177e+01  4.1756e-02  6.9433e-03  4.1517e-03  0:17:52 1931
    70  4.1569e-02  9.4843e-03  5.2361e-02  1.6682e+01  4.1435e-02  7.0855e-03  4.1879e-03  0:14:17 1930
    71  4.1235e-02  9.5849e-03  5.3353e-02  1.8027e+01  4.1104e-02  7.2415e-03  4.2265e-03  0:17:51 1929
    72  4.0805e-02  9.6581e-03  5.4416e-02  1.9194e+01  4.0678e-02  7.4094e-03  4.2673e-03  0:14:17 1928
    73  4.0201e-02  9.6937e-03  5.5633e-02  2.0206e+01  4.0077e-02  7.5951e-03  4.3069e-03  0:17:50 1927
    74  3.9275e-02  9.6918e-03  5.6869e-02  2.0931e+01  3.9155e-02  7.7896e-03  4.3391e-03  0:14:16 1926
    75  3.7851e-02  9.6533e-03  5.7774e-02  2.1322e+01  3.7735e-02  8.0121e-03  4.3739e-03  0:17:49 1925
    76  3.5850e-02  9.5865e-03  5.8318e-02  2.1486e+01  3.5738e-02  8.2420e-03  4.4034e-03  0:14:15 1924
    77  3.3304e-02  9.5059e-03  5.8674e-02  2.1528e+01  3.3196e-02  8.4797e-03  4.4336e-03  0:17:48 1923

  iter  continuity  x-velocity  y-velocity  z-velocity      energy           k       omega     time/iter
    78  3.0455e-02  9.4181e-03  5.8976e-02  2.1455e+01  3.0351e-02  8.7580e-03  4.4445e-03  0:14:14 1922
    79  2.7748e-02  9.3256e-03  5.9248e-02  2.1279e+01  2.7651e-02  9.0433e-03  4.4556e-03  0:17:47 1921
    80  2.5470e-02  9.2613e-03  5.9465e-02  2.1051e+01  2.5379e-02  9.3046e-03  4.4678e-03  0:14:13 1920
    81  2.3476e-02  9.2209e-03  5.9711e-02  2.0742e+01  2.3392e-02  9.6265e-03  4.4822e-03  0:17:46 1919
    82  2.1697e-02  9.2074e-03  5.9953e-02  2.0313e+01  2.1620e-02  9.9671e-03  4.4921e-03  0:14:12 1918
    83  2.0138e-02  9.2332e-03  6.0145e-02  1.9794e+01  2.0067e-02  1.0297e-02  4.5033e-03  0:17:45 1917
    84  1.8840e-02  9.2942e-03  6.0276e-02  1.9256e+01  1.8776e-02  1.0589e-02  4.5126e-03  0:14:12 1916
    85  1.7849e-02  9.3795e-03  6.0337e-02  1.8686e+01  1.7791e-02  1.0931e-02  4.5307e-03  0:17:44 1915
    86  1.7186e-02  9.4783e-03  6.0324e-02  1.8063e+01  1.7133e-02  1.1311e-02  4.5500e-03  0:14:11 1914
    87  1.6859e-02  9.5742e-03  6.0236e-02  1.7307e+01  1.6810e-02  1.1674e-02  4.5629e-03  0:17:43 1913
    88  1.6843e-02  9.6545e-03  6.0057e-02  1.6345e+01  1.6797e-02  1.1994e-02  4.5721e-03  0:14:10 1912

  iter  continuity  x-velocity  y-velocity  z-velocity      energy           k       omega     time/iter
    89  1.7073e-02  9.7159e-03  5.9788e-02  1.5348e+01  1.7029e-02  1.2284e-02  4.5963e-03  0:17:42 1911
    90  1.7474e-02  9.7505e-03  5.9429e-02  1.4462e+01  1.7431e-02  1.2659e-02  4.6128e-03  0:14:09 1910
    91  1.7977e-02  9.7547e-03  5.8987e-02  1.3769e+01  1.7934e-02  1.3043e-02  4.6292e-03  0:17:41 1909
    92  1.8524e-02  9.7278e-03  5.8456e-02  1.3277e+01  1.8480e-02  1.3415e-02  4.6395e-03  0:14:08 1908
    93  1.9075e-02  9.6713e-03  5.7854e-02  1.2767e+01  1.9030e-02  1.3666e-02  4.6433e-03  0:17:39 1907
    94  1.9602e-02  9.5893e-03  5.7157e-02  1.2171e+01  1.9555e-02  1.3911e-02  4.6621e-03  0:14:07 1906
    95  2.0056e-02  9.4893e-03  5.6388e-02  1.1688e+01  2.0007e-02  1.4288e-02  4.6726e-03  0:17:38 1905
    96  2.0477e-02  9.3739e-03  5.5557e-02  1.1535e+01  2.0426e-02  1.4630e-02  4.6789e-03  0:14:06 1904
    97  2.0834e-02  9.2470e-03  5.4717e-02  1.1672e+01  2.0781e-02  1.5001e-02  4.6812e-03  0:17:37 1903
    98  2.1119e-02  9.1163e-03  5.3913e-02  1.2002e+01  2.1064e-02  1.5335e-02  4.6856e-03  0:14:05 1902
    99  2.1351e-02  8.9922e-03  5.3167e-02  1.2312e+01  2.1294e-02  1.5478e-02  4.6804e-03  0:17:36 1901

  iter  continuity  x-velocity  y-velocity  z-velocity      energy           k       omega     time/iter
   100  2.1562e-02  8.8876e-03  5.2499e-02  1.2740e+01  2.1503e-02  1.5621e-02  4.6825e-03  0:14:04 1900
   101  2.1768e-02  8.7888e-03  5.1956e-02  1.3391e+01  2.1707e-02  1.5935e-02  4.6713e-03  0:17:35 1899
   102  2.1952e-02  8.7072e-03  5.1543e-02  1.4142e+01  2.1890e-02  1.6235e-02  4.6493e-03  0:14:04 1898
   103  2.2116e-02  8.6502e-03  5.1264e-02  1.5001e+01  2.2052e-02  1.6482e-02  4.6322e-03  0:17:34 1897
   104  2.2255e-02  8.6143e-03  5.1138e-02  1.5785e+01  2.2191e-02  1.6807e-02  4.6074e-03  0:14:03 1896
   105  2.2378e-02  8.5951e-03  5.1203e-02  1.6783e+01  2.2313e-02  1.7003e-02  4.5845e-03  0:17:33 1895
   106  2.2475e-02  8.6013e-03  5.1454e-02  1.8061e+01  2.2410e-02  1.7022e-02  4.5854e-03  0:14:02 1894
   107  2.2535e-02  8.6171e-03  5.1833e-02  1.9631e+01  2.2471e-02  1.7059e-02  4.5817e-03  0:17:32 1893
   108  2.2585e-02  8.6371e-03  5.2312e-02  2.1059e+01  2.2523e-02  1.7387e-02  4.5724e-03  0:14:01 1892
   109  2.2614e-02  8.6830e-03  5.2867e-02  2.2194e+01  2.2554e-02  1.7747e-02  4.5808e-03  0:17:31 1891
   110  2.2605e-02  8.7823e-03  5.3468e-02  2.3065e+01  2.2546e-02  1.7948e-02  4.5815e-03  0:14:00 1890

  iter  continuity  x-velocity  y-velocity  z-velocity      energy           k       omega     time/iter
   111  2.2577e-02  8.8996e-03  5.4125e-02  2.3796e+01  2.2521e-02  1.8062e-02  4.5781e-03  0:17:29 1889
   112  2.2472e-02  9.0196e-03  5.4777e-02  2.4371e+01  2.2418e-02  1.8150e-02  4.5701e-03  0:13:59 1888
   113  2.2345e-02  9.1499e-03  5.5366e-02  2.5000e+01  2.2293e-02  1.8043e-02  4.5597e-03  0:17:28 1887
   114  2.2224e-02  9.2901e-03  5.5850e-02  2.5953e+01  2.2174e-02  1.7814e-02  4.5587e-03  0:13:58 1886
   115  2.2120e-02  9.4254e-03  5.6202e-02  2.6384e+01  2.2070e-02  1.7609e-02  4.5709e-03  0:17:27 1885
   116  2.2044e-02  9.5543e-03  5.6430e-02  2.6500e+01  2.1995e-02  1.7588e-02  4.5919e-03  0:13:57 1884
   117  2.2003e-02  9.7060e-03  5.6511e-02  2.6325e+01  2.1954e-02  1.7633e-02  4.5966e-03  0:17:26 1883
   118  2.2025e-02  9.8689e-03  5.6438e-02  2.6135e+01  2.1976e-02  1.7720e-02  4.5892e-03  0:13:56 1882
   119  2.2169e-02  1.0002e-02  5.6212e-02  2.5830e+01  2.2119e-02  1.7842e-02  4.6031e-03  0:17:25 1881
   120  2.2383e-02  1.0127e-02  5.5885e-02  2.4710e+01  2.2332e-02  1.7864e-02  4.6234e-03  0:13:56 1880
   121  2.2739e-02  1.0265e-02  5.5453e-02  2.3628e+01  2.2687e-02  1.7847e-02  4.6323e-03  0:17:24 1879

  iter  continuity  x-velocity  y-velocity  z-velocity      energy           k       omega     time/iter
   122  2.3147e-02  1.0352e-02  5.4909e-02  2.2449e+01  2.3093e-02  1.7834e-02  4.6367e-03  0:13:55 1878
   123  2.3599e-02  1.0416e-02  5.4242e-02  2.1506e+01  2.3544e-02  1.7765e-02  4.6534e-03  0:17:23 1877
   124  2.4125e-02  1.0449e-02  5.3472e-02  2.0633e+01  2.4068e-02  1.7746e-02  4.6564e-03  0:13:54 1876
   125  2.4648e-02  1.0448e-02  5.2610e-02  1.9871e+01  2.4589e-02  1.7729e-02  4.6473e-03  0:17:22 1875
   126  2.5176e-02  1.0421e-02  5.1679e-02  1.9709e+01  2.5115e-02  1.7663e-02  4.6275e-03  0:13:53 1874
   127  2.5623e-02  1.0396e-02  5.0688e-02  1.9851e+01  2.5560e-02  1.7641e-02  4.6220e-03  0:17:21 1873
   128  2.5975e-02  1.0378e-02  4.9665e-02  1.9616e+01  2.5911e-02  1.7535e-02  4.6099e-03  0:13:52 1872
   129  2.6255e-02  1.0371e-02  4.8611e-02  2.0145e+01  2.6190e-02  1.7368e-02  4.6058e-03  0:17:19 1871
   130  2.6472e-02  1.0366e-02  4.7567e-02  2.1077e+01  2.6406e-02  1.7309e-02  4.5927e-03  0:13:51 1870
   131  2.6602e-02  1.0377e-02  4.6527e-02  2.2046e+01  2.6535e-02  1.7211e-02  4.5844e-03  0:17:18 1869
   132  2.6627e-02  1.0391e-02  4.5504e-02  2.3016e+01  2.6559e-02  1.7096e-02  4.5615e-03  0:13:50 1868

  iter  continuity  x-velocity  y-velocity  z-velocity      energy           k       omega     time/iter
   133  2.6540e-02  1.0430e-02  4.4489e-02  2.3871e+01  2.6472e-02  1.6820e-02  4.5453e-03  0:17:17 1867
   134  2.6366e-02  1.0502e-02  4.3500e-02  2.4642e+01  2.6299e-02  1.6585e-02  4.5111e-03  0:13:49 1866
   135  2.6129e-02  1.0600e-02  4.2568e-02  2.5218e+01  2.6062e-02  1.6394e-02  4.4868e-03  0:17:16 1865
   136  2.5850e-02  1.0710e-02  4.1729e-02  2.5565e+01  2.5784e-02  1.6186e-02  4.4655e-03  0:13:48 1864
   137  2.5557e-02  1.0831e-02  4.1063e-02  2.5813e+01  2.5492e-02  1.6158e-02  4.4404e-03  0:17:15 1863
   138  2.5245e-02  1.0965e-02  4.0565e-02  2.6056e+01  2.5181e-02  1.6284e-02  4.4019e-03  0:13:48 1862
   139  2.4930e-02  1.1099e-02  4.0208e-02  2.6169e+01  2.4868e-02  1.6290e-02  4.3671e-03  0:11:02 1861
   140  2.4588e-02  1.1237e-02  3.9928e-02  2.6300e+01  2.4526e-02  1.6168e-02  4.3331e-03  0:15:01 1860
   141  2.4228e-02  1.1377e-02  3.9710e-02  2.6657e+01  2.4168e-02  1.6186e-02  4.2920e-03  0:12:00 1859
   142  2.3884e-02  1.1526e-02  3.9544e-02  2.7161e+01  2.3825e-02  1.6332e-02  4.2353e-03  0:15:48 1858
   143  2.3554e-02  1.1676e-02  3.9400e-02  2.7671e+01  2.3497e-02  1.6376e-02  4.2010e-03  0:12:38 1857

  iter  continuity  x-velocity  y-velocity  z-velocity      energy           k       omega     time/iter
   144  2.3254e-02  1.1820e-02  3.9255e-02  2.8084e+01  2.3198e-02  1.6137e-02  4.1712e-03  0:16:17 1856
   145  2.2965e-02  1.1955e-02  3.9095e-02  2.8553e+01  2.2910e-02  1.5731e-02  4.1327e-03  0:13:01 1855
   146  2.2684e-02  1.2075e-02  3.8906e-02  2.9189e+01  2.2630e-02  1.5320e-02  4.1067e-03  0:16:35 1854
   147  2.2412e-02  1.2182e-02  3.8669e-02  2.9965e+01  2.2359e-02  1.5086e-02  4.0698e-03  0:13:16 1853
   148  2.2152e-02  1.2267e-02  3.8407e-02  3.0767e+01  2.2100e-02  1.4951e-02  4.0268e-03  0:16:47 1852
   149  2.1898e-02  1.2324e-02  3.8114e-02  3.1479e+01  2.1847e-02  1.4896e-02  3.9878e-03  0:13:25 1851
   150  2.1687e-02  1.2351e-02  3.7805e-02  3.1984e+01  2.1637e-02  1.4794e-02  3.9577e-03  0:16:54 1850
   151  2.1503e-02  1.2353e-02  3.7498e-02  3.2290e+01  2.1454e-02  1.4667e-02  3.9246e-03  0:13:30 1849
   152  2.1322e-02  1.2328e-02  3.7176e-02  3.2380e+01  2.1273e-02  1.4486e-02  3.8922e-03  0:16:58 1848
   153  2.1172e-02  1.2270e-02  3.6829e-02  3.2221e+01  2.1124e-02  1.4243e-02  3.8499e-03  0:13:34 1847
   154  2.1050e-02  1.2182e-02  3.6464e-02  3.1833e+01  2.1002e-02  1.3972e-02  3.8169e-03  0:17:00 1846

  iter  continuity  x-velocity  y-velocity  z-velocity      energy           k       omega     time/iter
   155  2.0946e-02  1.2058e-02  3.6089e-02  3.1265e+01  2.0897e-02  1.3677e-02  3.7756e-03  0:13:35 1845
   156  2.0871e-02  1.1903e-02  3.5723e-02  3.0540e+01  2.0822e-02  1.3325e-02  3.7410e-03  0:17:01 1844
   157  2.0834e-02  1.1721e-02  3.5374e-02  2.9659e+01  2.0786e-02  1.2991e-02  3.6983e-03  0:13:36 1843
   158  2.0797e-02  1.1513e-02  3.5052e-02  2.8701e+01  2.0748e-02  1.2657e-02  3.6591e-03  0:17:01 1842
   159  2.0788e-02  1.1291e-02  3.4765e-02  2.7749e+01  2.0739e-02  1.2345e-02  3.6206e-03  0:13:36 1841
   160  2.0814e-02  1.1067e-02  3.4508e-02  2.6871e+01  2.0764e-02  1.2071e-02  3.5815e-03  0:17:01 1840
   161  2.0807e-02  1.0842e-02  3.4269e-02  2.6148e+01  2.0756e-02  1.1812e-02  3.5452e-03  0:13:36 1839
   162  2.0779e-02  1.0617e-02  3.4050e-02  2.5643e+01  2.0727e-02  1.1591e-02  3.5155e-03  0:17:00 1838
   163  2.0730e-02  1.0393e-02  3.3853e-02  2.5481e+01  2.0677e-02  1.1372e-02  3.4853e-03  0:13:36 1837
   164  2.0658e-02  1.0177e-02  3.3672e-02  2.5694e+01  2.0604e-02  1.1154e-02  3.4547e-03  0:16:59 1836
   165  2.0552e-02  9.9746e-03  3.3501e-02  2.6280e+01  2.0497e-02  1.0956e-02  3.4256e-03  0:13:35 1835

  iter  continuity  x-velocity  y-velocity  z-velocity      energy           k       omega     time/iter
   166  2.0434e-02  9.7866e-03  3.3333e-02  2.7168e+01  2.0378e-02  1.0750e-02  3.3986e-03  0:16:58 1834
   167  2.0291e-02  9.6145e-03  3.3165e-02  2.8232e+01  2.0234e-02  1.0588e-02  3.3799e-03  0:13:34 1833
   168  2.0114e-02  9.4596e-03  3.2995e-02  2.9383e+01  2.0056e-02  1.0454e-02  3.3620e-03  0:16:58 1832
   169  1.9909e-02  9.3202e-03  3.2822e-02  3.0517e+01  1.9849e-02  1.0329e-02  3.3451e-03  0:13:34 1831
   170  1.9684e-02  9.1958e-03  3.2637e-02  3.1520e+01  1.9623e-02  1.0207e-02  3.3317e-03  0:16:57 1830
   171  1.9427e-02  9.0854e-03  3.2430e-02  3.2305e+01  1.9365e-02  1.0080e-02  3.3211e-03  0:13:33 1829
   172  1.9108e-02  8.9881e-03  3.2218e-02  3.2844e+01  1.9045e-02  9.9618e-03  3.3085e-03  0:16:55 1828
   173  1.8781e-02  8.9030e-03  3.2001e-02  3.3124e+01  1.8717e-02  9.8315e-03  3.3038e-03  0:13:32 1827
   174  1.8524e-02  8.8296e-03  3.1775e-02  3.3149e+01  1.8459e-02  9.7181e-03  3.3031e-03  0:16:54 1826
   175  1.8096e-02  8.7675e-03  3.1545e-02  3.2879e+01  1.8031e-02  9.6324e-03  3.2965e-03  0:13:31 1825
   176  1.7663e-02  8.7169e-03  3.1306e-02  3.2398e+01  1.7597e-02  9.5632e-03  3.2870e-03  0:16:53 1824

  iter  continuity  x-velocity  y-velocity  z-velocity      energy           k       omega     time/iter
   177  1.7226e-02  8.6782e-03  3.1066e-02  3.1703e+01  1.7160e-02  9.4932e-03  3.2847e-03  0:13:30 1823
   178  1.6855e-02  8.6512e-03  3.0825e-02  3.0886e+01  1.6789e-02  9.4433e-03  3.2823e-03  0:16:52 1822
   179  1.6594e-02  8.6354e-03  3.0590e-02  2.9986e+01  1.6527e-02  9.4020e-03  3.2811e-03  0:13:29 1821
   180  1.6432e-02  8.6310e-03  3.0366e-02  2.9087e+01  1.6364e-02  9.3423e-03  3.2714e-03  0:16:51 1820
   181  1.6359e-02  8.6376e-03  3.0164e-02  2.8232e+01  1.6291e-02  9.3258e-03  3.2569e-03  0:13:28 1819
   182  1.6354e-02  8.6544e-03  2.9982e-02  2.7494e+01  1.6285e-02  9.3170e-03  3.2457e-03  0:16:50 1818
   183  1.6391e-02  8.6801e-03  2.9822e-02  2.6928e+01  1.6321e-02  9.3039e-03  3.2331e-03  0:13:28 1817
   184  1.6457e-02  8.7072e-03  2.9684e-02  2.6638e+01  1.6386e-02  9.2926e-03  3.2231e-03  0:16:49 1816
   185  1.6550e-02  8.7369e-03  2.9549e-02  2.6632e+01  1.6478e-02  9.2756e-03  3.2117e-03  0:13:27 1815
   186  1.6675e-02  8.7748e-03  2.9471e-02  2.6881e+01  1.6603e-02  9.2600e-03  3.2006e-03  0:16:48 1814
   187  1.6835e-02  8.8207e-03  2.9423e-02  2.7362e+01  1.6763e-02  9.2894e-03  3.1908e-03  0:13:26 1813

  iter  continuity  x-velocity  y-velocity  z-velocity      energy           k       omega     time/iter
   188  1.7029e-02  8.8744e-03  2.9401e-02  2.8053e+01  1.6957e-02  9.3225e-03  3.1812e-03  0:16:47 1812
   189  1.7254e-02  8.9354e-03  2.9406e-02  2.8915e+01  1.7182e-02  9.3352e-03  3.1738e-03  0:13:25 1811
   190  1.7506e-02  9.0027e-03  2.9435e-02  2.9903e+01  1.7434e-02  9.3374e-03  3.1772e-03  0:16:46 1810
   191  1.7784e-02  9.0733e-03  2.9483e-02  3.1000e+01  1.7712e-02  9.3312e-03  3.1799e-03  0:13:24 1809
   192  1.8088e-02  9.1466e-03  2.9544e-02  3.2192e+01  1.8016e-02  9.3133e-03  3.1885e-03  0:16:44 1808
   193  1.8422e-02  9.2220e-03  2.9610e-02  3.3465e+01  1.8351e-02  9.3219e-03  3.1988e-03  0:13:23 1807
   194  1.8790e-02  9.2985e-03  2.9678e-02  3.4846e+01  1.8718e-02  9.3470e-03  3.2037e-03  0:10:42 1806
   195  1.9186e-02  9.3751e-03  2.9737e-02  3.6374e+01  1.9115e-02  9.4004e-03  3.2089e-03  0:14:34 1805
   196  1.9616e-02  9.4508e-03  2.9788e-02  3.8018e+01  1.9546e-02  9.4262e-03  3.2214e-03  0:11:39 1804
   197  2.0080e-02  9.5165e-03  2.9828e-02  3.9783e+01  2.0010e-02  9.4209e-03  3.2328e-03  0:15:20 1803
   198  2.0576e-02  9.5864e-03  2.9836e-02  4.1714e+01  2.0507e-02  9.4156e-03  3.2488e-03  0:12:15 1802

  iter  continuity  x-velocity  y-velocity  z-velocity      energy           k       omega     time/iter
   199  2.1103e-02  9.6565e-03  2.9830e-02  4.3818e+01  2.1034e-02  9.3868e-03  3.2543e-03  0:15:48 1801
   200  2.1664e-02  9.7218e-03  2.9817e-02  4.6088e+01  2.1594e-02  9.3457e-03  3.2628e-03  0:12:38 1800
   201  2.2257e-02  9.7806e-03  2.9785e-02  4.8584e+01  2.2188e-02  9.3014e-03  3.2689e-03  0:16:06 1799
   202  2.2869e-02  9.8314e-03  2.9723e-02  5.1526e+01  2.2800e-02  9.2485e-03  3.2729e-03  0:12:52 1798
   203  2.3449e-02  9.8735e-03  2.9628e-02  5.5235e+01  2.3379e-02  9.2085e-03  3.2772e-03  0:16:17 1797
   204  2.3977e-02  9.9104e-03  2.9501e-02  5.9963e+01  2.3908e-02  9.1636e-03  3.2785e-03  0:13:01 1796
   205  2.4457e-02  9.9409e-03  2.9347e-02  6.6019e+01  2.4387e-02  9.1277e-03  3.2802e-03  0:16:24 1795
   206  2.4866e-02  9.9656e-03  2.9166e-02  7.3524e+01  2.4796e-02  9.0982e-03  3.2809e-03  0:13:06 1794
   207  2.5197e-02  9.9838e-03  2.8950e-02  8.2435e+01  2.5127e-02  9.0786e-03  3.2838e-03  0:16:27 1793
   208  2.5463e-02  9.9983e-03  2.8713e-02  9.1604e+01  2.5393e-02  9.0845e-03  3.2849e-03  0:13:09 1792
   209  2.5682e-02  1.0010e-02  2.8456e-02  1.0006e+02  2.5613e-02  9.0826e-03  3.2835e-03  0:16:29 1791

  iter  continuity  x-velocity  y-velocity  z-velocity      energy           k       omega     time/iter
   210  2.5838e-02  1.0016e-02  2.8176e-02  1.0749e+02  2.5769e-02  9.0749e-03  3.2792e-03  0:13:11 1790
   211  2.5936e-02  1.0020e-02  2.7873e-02  1.1385e+02  2.5869e-02  9.0796e-03  3.2764e-03  0:16:30 1789
   212  2.5999e-02  1.0020e-02  2.7554e-02  1.1916e+02  2.5932e-02  9.0853e-03  3.2749e-03  0:13:12 1788
   213  2.6038e-02  1.0014e-02  2.7229e-02  1.2350e+02  2.5974e-02  9.0805e-03  3.2678e-03  0:16:30 1787
   214  2.6056e-02  1.0005e-02  2.6905e-02  1.2697e+02  2.5993e-02  9.0713e-03  3.2608e-03  0:13:12 1786
   215  2.6039e-02  9.9937e-03  2.6591e-02  1.2953e+02  2.5977e-02  9.0652e-03  3.2511e-03  0:16:30 1785
   216  2.6001e-02  9.9824e-03  2.6292e-02  1.3112e+02  2.5940e-02  9.0470e-03  3.2371e-03  0:13:12 1784
   217  2.5941e-02  9.9679e-03  2.6011e-02  1.3175e+02  2.5883e-02  9.0214e-03  3.2294e-03  0:16:30 1783
   218  2.5868e-02  9.9477e-03  2.5753e-02  1.3139e+02  2.5811e-02  8.9690e-03  3.2145e-03  0:13:11 1782
   219  2.5787e-02  9.9222e-03  2.5520e-02  1.2974e+02  2.5731e-02  8.9229e-03  3.1925e-03  0:16:29 1781
   220  2.5699e-02  9.8929e-03  2.5314e-02  1.2673e+02  2.5644e-02  8.8891e-03  3.1716e-03  0:13:11 1780

  iter  continuity  x-velocity  y-velocity  z-velocity      energy           k       omega     time/iter
   221  2.5614e-02  9.8574e-03  2.5132e-02  1.2244e+02  2.5560e-02  8.8441e-03  3.1503e-03  0:16:28 1779
   222  2.5534e-02  9.8169e-03  2.4982e-02  1.1700e+02  2.5482e-02  8.7694e-03  3.1266e-03  0:13:10 1778
   223  2.5466e-02  9.7695e-03  2.4867e-02  1.1053e+02  2.5415e-02  8.6858e-03  3.1076e-03  0:16:27 1777
   224  2.5410e-02  9.7123e-03  2.4773e-02  1.0332e+02  2.5361e-02  8.5922e-03  3.0856e-03  0:13:09 1776
   225  2.5369e-02  9.6442e-03  2.4703e-02  9.5588e+01  2.5321e-02  8.4975e-03  3.0592e-03  0:16:26 1775
   226  2.5347e-02  9.5656e-03  2.4659e-02  8.7744e+01  2.5300e-02  8.3970e-03  3.0249e-03  0:13:08 1774
   227  2.5342e-02  9.4776e-03  2.4643e-02  8.0202e+01  2.5297e-02  8.2889e-03  2.9927e-03  0:16:25 1773
   228  2.5349e-02  9.3815e-03  2.4656e-02  7.3533e+01  2.5306e-02  8.1618e-03  2.9682e-03  0:13:07 1772
   229  2.5354e-02  9.2787e-03  2.4701e-02  6.8560e+01  2.5313e-02  8.0364e-03  2.9406e-03  0:16:24 1771
   230  2.5346e-02  9.1699e-03  2.4781e-02  6.5943e+01  2.5306e-02  7.8922e-03  2.9114e-03  0:13:07 1770
   231  2.5323e-02  9.0569e-03  2.4896e-02  6.5869e+01  2.5285e-02  7.7402e-03  2.8791e-03  0:16:23 1769

  iter  continuity  x-velocity  y-velocity  z-velocity      energy           k       omega     time/iter
   232  2.5287e-02  8.9412e-03  2.5050e-02  6.8202e+01  2.5250e-02  7.6048e-03  2.8503e-03  0:13:06 1768
   233  2.5233e-02  8.8240e-03  2.5241e-02  7.2389e+01  2.5198e-02  7.4674e-03  2.8230e-03  0:16:22 1767
   234  2.5162e-02  8.7055e-03  2.5467e-02  7.7389e+01  2.5128e-02  7.3187e-03  2.7904e-03  0:18:58 1766
   235  2.5072e-02  8.5873e-03  2.5724e-02  8.2976e+01  2.5040e-02  7.1626e-03  2.7581e-03  0:15:10 1765
   236  2.4963e-02  8.4691e-03  2.6008e-02  8.8735e+01  2.4933e-02  7.0183e-03  2.7307e-03  0:18:00 1764
   237  2.4837e-02  8.3523e-03  2.6312e-02  9.4323e+01  2.4809e-02  6.8866e-03  2.7059e-03  0:14:24 1763
   238  2.4693e-02  8.2377e-03  2.6631e-02  9.9591e+01  2.4667e-02  6.7657e-03  2.6817e-03  0:17:23 1762
   239  2.4527e-02  8.1258e-03  2.6960e-02  1.0436e+02  2.4503e-02  6.6445e-03  2.6576e-03  0:13:54 1761
   240  2.4339e-02  8.0172e-03  2.7290e-02  1.0846e+02  2.4316e-02  6.5172e-03  2.6339e-03  0:16:59 1760
   241  2.4130e-02  7.9130e-03  2.7615e-02  1.1177e+02  2.4109e-02  6.4025e-03  2.6094e-03  0:13:35 1759
   242  2.3902e-02  7.8128e-03  2.7929e-02  1.1422e+02  2.3882e-02  6.2900e-03  2.5903e-03  0:16:43 1758

  iter  continuity  x-velocity  y-velocity  z-velocity      energy           k       omega     time/iter
   243  2.3648e-02  7.7170e-03  2.8231e-02  1.1590e+02  2.3629e-02  6.1753e-03  2.5747e-03  0:13:22 1757
   244  2.3371e-02  7.6245e-03  2.8513e-02  1.1679e+02  2.3353e-02  6.0706e-03  2.5573e-03  0:16:32 1756
   245  2.3061e-02  7.5349e-03  2.8772e-02  1.1699e+02  2.3045e-02  5.9801e-03  2.5406e-03  0:13:13 1755
   246  2.2716e-02  7.4488e-03  2.9009e-02  1.1670e+02  2.2700e-02  5.8967e-03  2.5256e-03  0:16:25 1754
   247  2.2332e-02  7.3661e-03  2.9226e-02  1.1592e+02  2.2317e-02  5.8324e-03  2.5111e-03  0:13:08 1753
   248  2.1907e-02  7.2869e-03  2.9421e-02  1.1469e+02  2.1893e-02  5.7674e-03  2.4983e-03  0:16:20 1752
   249  2.1453e-02  7.2111e-03  2.9597e-02  1.1301e+02  2.1439e-02  5.7135e-03  2.4838e-03  0:13:04 1751
   250  2.0972e-02  7.1386e-03  2.9757e-02  1.1092e+02  2.0958e-02  5.6700e-03  2.4733e-03  0:16:17 1750
   251  2.0488e-02  7.0698e-03  2.9900e-02  1.0841e+02  2.0474e-02  5.6310e-03  2.4668e-03  0:13:01 1749
   252  2.0016e-02  7.0048e-03  3.0030e-02  1.0529e+02  2.0002e-02  5.5954e-03  2.4604e-03  0:16:14 1748
   253  1.9562e-02  6.9432e-03  3.0148e-02  1.0157e+02  1.9548e-02  5.5651e-03  2.4501e-03  0:12:59 1747

  iter  continuity  x-velocity  y-velocity  z-velocity      energy           k       omega     time/iter
   254  1.9120e-02  6.8851e-03  3.0255e-02  9.7273e+01  1.9106e-02  5.5400e-03  2.4432e-03  0:16:12 1746
   255  1.8691e-02  6.8306e-03  3.0352e-02  9.2327e+01  1.8676e-02  5.5218e-03  2.4354e-03  0:12:57 1745
   256  1.8278e-02  6.7790e-03  3.0438e-02  8.6749e+01  1.8263e-02  5.5173e-03  2.4275e-03  0:16:10 1744
   257  1.7890e-02  6.7311e-03  3.0511e-02  8.0698e+01  1.7875e-02  5.5094e-03  2.4178e-03  0:12:56 1743
   258  1.7522e-02  6.6878e-03  3.0566e-02  7.4378e+01  1.7506e-02  5.4985e-03  2.4076e-03  0:16:09 1742
   259  1.7181e-02  6.6493e-03  3.0600e-02  6.8034e+01  1.7164e-02  5.4817e-03  2.3979e-03  0:12:54 1741
   260  1.6856e-02  6.6154e-03  3.0611e-02  6.2056e+01  1.6839e-02  5.4821e-03  2.3878e-03  0:16:07 1740
   261  1.6553e-02  6.5862e-03  3.0595e-02  5.6655e+01  1.6535e-02  5.4853e-03  2.3832e-03  0:12:53 1739
   262  1.6292e-02  6.5615e-03  3.0548e-02  5.1906e+01  1.6273e-02  5.4890e-03  2.3815e-03  0:16:06 1738
   263  1.6084e-02  6.5409e-03  3.0466e-02  4.8031e+01  1.6063e-02  5.4860e-03  2.3741e-03  0:12:52 1737
   264  1.5939e-02  6.5243e-03  3.0348e-02  4.4986e+01  1.5916e-02  5.4933e-03  2.3689e-03  0:16:05 1736

  iter  continuity  x-velocity  y-velocity  z-velocity      energy           k       omega     time/iter
   265  1.5865e-02  6.5110e-03  3.0187e-02  4.2786e+01  1.5841e-02  5.4786e-03  2.3628e-03  0:12:51 1735
   266  1.5869e-02  6.5003e-03  2.9983e-02  4.1392e+01  1.5842e-02  5.4650e-03  2.3584e-03  0:16:03 1734
   267  1.5953e-02  6.4917e-03  2.9736e-02  4.0643e+01  1.5925e-02  5.4433e-03  2.3538e-03  0:12:50 1733
   268  1.6121e-02  6.4849e-03  2.9447e-02  4.0421e+01  1.6090e-02  5.4146e-03  2.3525e-03  0:16:02 1732
   269  1.6371e-02  6.4787e-03  2.9113e-02  4.0519e+01  1.6337e-02  5.3884e-03  2.3491e-03  0:12:49 1731
   270  1.6702e-02  6.4722e-03  2.8733e-02  4.0895e+01  1.6666e-02  5.3595e-03  2.3442e-03  0:16:01 1730
   271  1.7113e-02  6.4649e-03  2.8317e-02  4.1343e+01  1.7074e-02  5.3206e-03  2.3370e-03  0:12:48 1729
   272  1.7602e-02  6.4555e-03  2.7869e-02  4.1822e+01  1.7561e-02  5.2804e-03  2.3297e-03  0:16:00 1728
   273  1.8169e-02  6.4417e-03  2.7390e-02  4.2326e+01  1.8126e-02  5.2370e-03  2.3219e-03  0:12:48 1727
   274  1.8821e-02  6.4219e-03  2.6883e-02  4.2835e+01  1.8776e-02  5.2077e-03  2.3125e-03  0:15:59 1726
   275  1.9550e-02  6.3953e-03  2.6367e-02  4.3354e+01  1.9502e-02  5.1846e-03  2.3019e-03  0:12:47 1725

  iter  continuity  x-velocity  y-velocity  z-velocity      energy           k       omega     time/iter
   276  2.0365e-02  6.3618e-03  2.5849e-02  4.3701e+01  2.0315e-02  5.1634e-03  2.2910e-03  0:15:58 1724
   277  2.1256e-02  6.3240e-03  2.5330e-02  4.3861e+01  2.1204e-02  5.1393e-03  2.2788e-03  0:12:46 1723
   278  2.2164e-02  6.2828e-03  2.4841e-02  4.4129e+01  2.2110e-02  5.1121e-03  2.2703e-03  0:15:57 1722
   279  2.3089e-02  6.2367e-03  2.4380e-02  4.4272e+01  2.3033e-02  5.0729e-03  2.2627e-03  0:12:45 1721
   280  2.3994e-02  6.1860e-03  2.3966e-02  4.4734e+01  2.3936e-02  5.0213e-03  2.2562e-03  0:15:56 1720
   281  2.4852e-02  6.1313e-03  2.3611e-02  4.5508e+01  2.4793e-02  4.9617e-03  2.2557e-03  0:12:44 1719
   282  2.5650e-02  6.0729e-03  2.3317e-02  4.6211e+01  2.5589e-02  4.8979e-03  2.2535e-03  0:15:54 1718
   283  2.6349e-02  6.0129e-03  2.3102e-02  4.6776e+01  2.6288e-02  4.8291e-03  2.2478e-03  0:12:43 1717
   284  2.6975e-02  5.9514e-03  2.2957e-02  4.8069e+01  2.6913e-02  4.7598e-03  2.2409e-03  0:15:53 1716
   285  2.7515e-02  5.8883e-03  2.2890e-02  4.9464e+01  2.7452e-02  4.6866e-03  2.2314e-03  0:12:42 1715
   286  2.7977e-02  5.8237e-03  2.2901e-02  5.1545e+01  2.7915e-02  4.6096e-03  2.2201e-03  0:15:52 1714

  iter  continuity  x-velocity  y-velocity  z-velocity      energy           k       omega     time/iter
   287  2.8387e-02  5.7588e-03  2.2975e-02  5.4364e+01  2.8325e-02  4.5345e-03  2.2101e-03  0:12:41 1713
   288  2.8755e-02  5.6944e-03  2.3122e-02  5.8012e+01  2.8694e-02  4.4588e-03  2.2002e-03  0:15:51 1712
   289  2.9059e-02  5.6323e-03  2.3329e-02  6.2023e+01  2.8998e-02  4.3804e-03  2.1901e-03  0:18:23 1711
   290  2.9325e-02  5.5732e-03  2.3591e-02  6.6676e+01  2.9265e-02  4.2969e-03  2.1794e-03  0:14:42 1710
   291  2.9581e-02  5.5151e-03  2.3907e-02  7.1885e+01  2.9522e-02  4.2142e-03  2.1699e-03  0:17:27 1709
   292  2.9787e-02  5.4589e-03  2.4261e-02  7.7502e+01  2.9729e-02  4.1355e-03  2.1600e-03  0:13:57 1708
   293  2.9957e-02  5.4064e-03  2.4646e-02  8.3551e+01  2.9901e-02  4.0600e-03  2.1511e-03  0:16:50 1707
   294  3.0102e-02  5.3570e-03  2.5055e-02  8.9537e+01  3.0046e-02  3.9952e-03  2.1425e-03  0:13:28 1706
   295  3.0203e-02  5.3105e-03  2.5476e-02  9.5585e+01  3.0149e-02  3.9339e-03  2.1303e-03  0:10:46 1705
   296  3.0266e-02  5.2675e-03  2.5906e-02  1.0145e+02  3.0212e-02  3.8735e-03  2.1170e-03  0:14:17 1704
   297  3.0300e-02  5.2277e-03  2.6335e-02  1.0698e+02  3.0247e-02  3.8166e-03  2.1042e-03  0:11:25 1703

  iter  continuity  x-velocity  y-velocity  z-velocity      energy           k       omega     time/iter
   298  3.0294e-02  5.1916e-03  2.6756e-02  1.1210e+02  3.0242e-02  3.7643e-03  2.0924e-03  0:09:08 1702
   299  3.0272e-02  5.1579e-03  2.7171e-02  1.1657e+02  3.0222e-02  3.7162e-03  2.0807e-03  0:07:18 1701
   300  3.0222e-02  5.1276e-03  2.7578e-02  1.2028e+02  3.0172e-02  3.6750e-03  2.0696e-03  0:11:30 1700
   301  3.0159e-02  5.1006e-03  2.7972e-02  1.2314e+02  3.0111e-02  3.6403e-03  2.0597e-03  0:09:12 1699
   302  3.0077e-02  5.0762e-03  2.8354e-02  1.2508e+02  3.0030e-02  3.6142e-03  2.0504e-03  0:07:21 1698
   303  3.0002e-02  5.0537e-03  2.8717e-02  1.2592e+02  2.9955e-02  3.5897e-03  2.0385e-03  0:11:32 1697
   304  2.9938e-02  5.0324e-03  2.9058e-02  1.2597e+02  2.9892e-02  3.5639e-03  2.0277e-03  0:09:13 1696
   305  2.9896e-02  5.0125e-03  2.9380e-02  1.2529e+02  2.9851e-02  3.5434e-03  2.0175e-03  0:07:22 1695
   306  2.9875e-02  4.9945e-03  2.9678e-02  1.2395e+02  2.9831e-02  3.5290e-03  2.0064e-03  0:11:33 1694
   307  2.9899e-02  4.9785e-03  2.9958e-02  1.2212e+02  2.9856e-02  3.5181e-03  1.9966e-03  0:09:14 1693
   308  2.9963e-02  4.9659e-03  3.0222e-02  1.1971e+02  2.9921e-02  3.5118e-03  1.9871e-03  0:07:23 1692

  iter  continuity  x-velocity  y-velocity  z-velocity      energy           k       omega     time/iter
   309  3.0064e-02  4.9570e-03  3.0469e-02  1.1691e+02  3.0023e-02  3.5082e-03  1.9777e-03  0:05:54 1691
   310  3.0211e-02  4.9518e-03  3.0699e-02  1.1373e+02  3.0170e-02  3.5092e-03  1.9691e-03  0:10:21 1690
   311  3.0386e-02  4.9498e-03  3.0913e-02  1.1024e+02  3.0346e-02  3.5122e-03  1.9617e-03  0:08:17 1689
   312  3.0594e-02  4.9527e-03  3.1112e-02  1.0649e+02  3.0555e-02  3.5179e-03  1.9550e-03  0:06:37 1688
   313  3.0786e-02  4.9597e-03  3.1294e-02  1.0247e+02  3.0747e-02  3.5287e-03  1.9499e-03  0:10:55 1687
   314  3.0964e-02  4.9711e-03  3.1455e-02  9.8148e+01  3.0927e-02  3.5432e-03  1.9482e-03  0:08:44 1686
   315  3.1086e-02  4.9871e-03  3.1595e-02  9.4144e+01  3.1049e-02  3.5577e-03  1.9468e-03  0:06:59 1685
   316  3.1116e-02  5.0078e-03  3.1700e-02  9.0232e+01  3.1082e-02  3.5752e-03  1.9450e-03  0:11:11 1684
   317  3.0955e-02  5.0326e-03  3.1779e-02  8.6378e+01  3.0923e-02  3.5955e-03  1.9436e-03  0:08:57 1683
   318  3.0522e-02  5.0638e-03  3.1814e-02  8.2307e+01  3.0494e-02  3.6156e-03  1.9414e-03  0:07:09 1682
   319  2.9774e-02  5.1006e-03  3.1752e-02  7.7979e+01  2.9751e-02  3.6402e-03  1.9388e-03  0:05:43 1681

  iter  continuity  x-velocity  y-velocity  z-velocity      energy           k       omega     time/iter
   320  2.8983e-02  5.1395e-03  3.1570e-02  7.4123e+01  2.8965e-02  3.6668e-03  1.9356e-03  0:10:10 1680
   321  2.8560e-02  5.1791e-03  3.1344e-02  7.0743e+01  2.8546e-02  3.6956e-03  1.9335e-03  0:08:08 1679
   322  2.8595e-02  5.2200e-03  3.1141e-02  6.7666e+01  2.8583e-02  3.7246e-03  1.9316e-03  0:06:30 1678
   323  2.8809e-02  5.2644e-03  3.0945e-02  6.4531e+01  2.8798e-02  3.7538e-03  1.9301e-03  0:10:47 1677
   324  2.9091e-02  5.3119e-03  3.0737e-02  6.1122e+01  2.9081e-02  3.7834e-03  1.9278e-03  0:08:38 1676
   325  2.9398e-02  5.3611e-03  3.0513e-02  5.7537e+01  2.9388e-02  3.8140e-03  1.9264e-03  0:06:54 1675
   326  2.9733e-02  5.4121e-03  3.0270e-02  5.3914e+01  2.9724e-02  3.8461e-03  1.9258e-03  0:11:06 1674
   327  3.0052e-02  5.4656e-03  3.0004e-02  5.0518e+01  3.0042e-02  3.8826e-03  1.9253e-03  0:08:52 1673
   328  3.0382e-02  5.5217e-03  2.9715e-02  4.7909e+01  3.0373e-02  3.9203e-03  1.9245e-03  0:07:06 1672
   329  3.0687e-02  5.5805e-03  2.9399e-02  4.6015e+01  3.0677e-02  3.9574e-03  1.9236e-03  0:05:40 1671
   330  3.0977e-02  5.6412e-03  2.9059e-02  4.5019e+01  3.0967e-02  3.9968e-03  1.9235e-03  0:10:06 1670

  iter  continuity  x-velocity  y-velocity  z-velocity      energy           k       omega     time/iter
   331  3.1252e-02  5.7029e-03  2.8696e-02  4.4654e+01  3.1242e-02  4.0455e-03  1.9220e-03  0:08:05 1669
   332  3.1505e-02  5.7664e-03  2.8313e-02  4.5231e+01  3.1495e-02  4.0926e-03  1.9205e-03  0:06:27 1668
   333  3.1729e-02  5.8318e-03  2.7907e-02  4.6536e+01  3.1718e-02  4.1401e-03  1.9201e-03  0:10:43 1667
   334  3.1914e-02  5.8995e-03  2.7480e-02  4.8208e+01  3.1904e-02  4.1907e-03  1.9196e-03  0:08:34 1666
   335  3.2054e-02  5.9697e-03  2.7037e-02  5.0389e+01  3.2043e-02  4.2397e-03  1.9198e-03  0:06:51 1665
   336  3.2153e-02  6.0433e-03  2.6585e-02  5.2545e+01  3.2142e-02  4.2908e-03  1.9201e-03  0:11:01 1664
   337  3.2173e-02  6.1213e-03  2.6129e-02  5.4519e+01  3.2162e-02  4.3383e-03  1.9188e-03  0:08:49 1663
   338  3.2132e-02  6.2052e-03  2.5677e-02  5.6322e+01  3.2121e-02  4.3941e-03  1.9191e-03  0:07:03 1662
   339  3.2040e-02  6.2960e-03  2.5237e-02  5.7931e+01  3.2029e-02  4.4514e-03  1.9188e-03  0:11:10 1661
   340  3.1903e-02  6.3934e-03  2.4816e-02  5.9205e+01  3.1893e-02  4.5015e-03  1.9171e-03  0:08:56 1660
   341  3.1709e-02  6.4919e-03  2.4424e-02  6.0164e+01  3.1699e-02  4.5498e-03  1.9153e-03  0:07:08 1659

  iter  continuity  x-velocity  y-velocity  z-velocity      energy           k       omega     time/iter
   342  3.1449e-02  6.5969e-03  2.4064e-02  6.0555e+01  3.1439e-02  4.6015e-03  1.9121e-03  0:11:14 1658
   343  3.1143e-02  6.7103e-03  2.3737e-02  6.0484e+01  3.1133e-02  4.6578e-03  1.9080e-03  0:08:59 1657
   344  3.0799e-02  6.8292e-03  2.3434e-02  6.0186e+01  3.0790e-02  4.7124e-03  1.9022e-03  0:07:11 1656
   345  3.0374e-02  6.9564e-03  2.3167e-02  5.9877e+01  3.0365e-02  4.7675e-03  1.8984e-03  0:11:16 1655
   346  2.9840e-02  7.0927e-03  2.2923e-02  5.9491e+01  2.9830e-02  4.8198e-03  1.8945e-03  0:09:00 1654
   347  2.9203e-02  7.2352e-03  2.2680e-02  5.8694e+01  2.9194e-02  4.8673e-03  1.8907e-03  0:07:12 1653
   348  2.8552e-02  7.3832e-03  2.2430e-02  5.7701e+01  2.8542e-02  4.9273e-03  1.8853e-03  0:05:45 1652
   349  2.7877e-02  7.5386e-03  2.2182e-02  5.6425e+01  2.7866e-02  4.9913e-03  1.8804e-03  0:10:06 1651
   350  2.7163e-02  7.6983e-03  2.1950e-02  5.4991e+01  2.7150e-02  5.0565e-03  1.8757e-03  0:08:05 1650
   351  2.6417e-02  7.8594e-03  2.1739e-02  5.3499e+01  2.6402e-02  5.1245e-03  1.8716e-03  0:06:28 1649
   352  2.5653e-02  8.0204e-03  2.1549e-02  5.2098e+01  2.5636e-02  5.1820e-03  1.8645e-03  0:10:39 1648

  iter  continuity  x-velocity  y-velocity  z-velocity      energy           k       omega     time/iter
   353  2.5038e-02  8.1819e-03  2.1380e-02  5.0692e+01  2.5019e-02  5.2411e-03  1.8585e-03  0:08:31 1647
   354  2.4500e-02  8.3478e-03  2.1218e-02  4.9256e+01  2.4479e-02  5.2928e-03  1.8530e-03  0:06:49 1646
   355  2.4034e-02  8.5114e-03  2.1079e-02  4.7619e+01  2.4010e-02  5.3424e-03  1.8485e-03  0:10:56 1645
   356  2.3636e-02  8.6760e-03  2.0967e-02  4.6017e+01  2.3611e-02  5.3997e-03  1.8447e-03  0:08:44 1644
   357  2.3303e-02  8.8352e-03  2.0880e-02  4.4379e+01  2.3276e-02  5.4642e-03  1.8420e-03  0:06:59 1643
   358  2.3029e-02  8.9846e-03  2.0816e-02  4.2795e+01  2.2999e-02  5.5365e-03  1.8396e-03  0:11:04 1642
   359  2.2807e-02  9.1275e-03  2.0775e-02  4.1208e+01  2.2775e-02  5.5941e-03  1.8396e-03  0:08:51 1641
   360  2.2631e-02  9.2618e-03  2.0755e-02  3.9621e+01  2.2597e-02  5.6464e-03  1.8394e-03  0:07:04 1640
   361  2.2493e-02  9.3857e-03  2.0758e-02  3.8069e+01  2.2457e-02  5.6889e-03  1.8400e-03  0:05:39 1639
   362  2.2388e-02  9.5005e-03  2.0780e-02  3.6607e+01  2.2350e-02  5.7240e-03  1.8407e-03  0:09:59 1638
   363  2.2313e-02  9.6011e-03  2.0810e-02  3.5287e+01  2.2273e-02  5.7596e-03  1.8416e-03  0:07:59 1637

  iter  continuity  x-velocity  y-velocity  z-velocity      energy           k       omega     time/iter
   364  2.2267e-02  9.6863e-03  2.0843e-02  3.4200e+01  2.2225e-02  5.8059e-03  1.8422e-03  0:06:23 1636
   365  2.2243e-02  9.7571e-03  2.0878e-02  3.3342e+01  2.2200e-02  5.8625e-03  1.8448e-03  0:10:33 1635
   366  2.2234e-02  9.8127e-03  2.0917e-02  3.2729e+01  2.2188e-02  5.9196e-03  1.8486e-03  0:08:26 1634
   367  2.2245e-02  9.8505e-03  2.0958e-02  3.2369e+01  2.2198e-02  5.9809e-03  1.8522e-03  0:06:45 1633
   368  2.2268e-02  9.8712e-03  2.0992e-02  3.2421e+01  2.2220e-02  6.0308e-03  1.8553e-03  0:10:50 1632
   369  2.2313e-02  9.8761e-03  2.1042e-02  3.2829e+01  2.2263e-02  6.0721e-03  1.8594e-03  0:08:40 1631
   370  2.2379e-02  9.8685e-03  2.1122e-02  3.3426e+01  2.2327e-02  6.1023e-03  1.8640e-03  0:06:55 1630
   371  2.2444e-02  9.8478e-03  2.1228e-02  3.4809e+01  2.2391e-02  6.1215e-03  1.8687e-03  0:10:58 1629
   372  2.2517e-02  9.8144e-03  2.1353e-02  3.7202e+01  2.2462e-02  6.1391e-03  1.8759e-03  0:08:46 1628
   373  2.2607e-02  9.7698e-03  2.1498e-02  4.0412e+01  2.2550e-02  6.1575e-03  1.8826e-03  0:07:01 1627
   374  2.2695e-02  9.7160e-03  2.1688e-02  4.4995e+01  2.2636e-02  6.1666e-03  1.8881e-03  0:05:36 1626

  iter  continuity  x-velocity  y-velocity  z-velocity      energy           k       omega     time/iter
   375  2.2769e-02  9.6556e-03  2.1910e-02  5.0454e+01  2.2709e-02  6.1609e-03  1.8915e-03  0:09:54 1625
   376  2.2831e-02  9.5846e-03  2.2131e-02  5.6155e+01  2.2770e-02  6.1463e-03  1.8969e-03  0:07:55 1624
   377  2.2874e-02  9.5075e-03  2.2370e-02  6.1202e+01  2.2811e-02  6.1242e-03  1.9032e-03  0:06:20 1623
   378  2.2925e-02  9.4244e-03  2.2646e-02  6.5716e+01  2.2860e-02  6.0932e-03  1.9083e-03  0:10:28 1622
   379  2.3050e-02  9.3320e-03  2.2922e-02  6.9676e+01  2.2984e-02  6.0522e-03  1.9105e-03  0:08:22 1621
   380  2.3219e-02  9.2258e-03  2.3206e-02  7.6013e+01  2.3151e-02  6.0164e-03  1.9115e-03  0:06:41 1620
   381  2.3288e-02  9.1087e-03  2.3493e-02  7.8451e+01  2.3218e-02  5.9763e-03  1.9100e-03  0:05:21 1619
   382  2.3376e-02  8.9854e-03  2.3755e-02  8.2236e+01  2.3304e-02  5.9193e-03  1.9075e-03  0:09:40 1618
   383  2.3444e-02  8.8638e-03  2.4002e-02  8.5976e+01  2.3371e-02  5.8549e-03  1.9072e-03  0:07:44 1617
   384  2.3454e-02  8.7500e-03  2.4248e-02  8.8414e+01  2.3380e-02  5.7749e-03  1.9038e-03  0:06:11 1616
   385  2.3441e-02  8.6350e-03  2.4507e-02  9.0704e+01  2.3365e-02  5.6974e-03  1.8994e-03  0:10:19 1615

  iter  continuity  x-velocity  y-velocity  z-velocity      energy           k       omega     time/iter
   386  2.3431e-02  8.5166e-03  2.4769e-02  9.3336e+01  2.3354e-02  5.6149e-03  1.9001e-03  0:08:15 1614
   387  2.3408e-02  8.3987e-03  2.5031e-02  9.4510e+01  2.3331e-02  5.5165e-03  1.8976e-03  0:06:36 1613
   388  2.3465e-02  8.2834e-03  2.5305e-02  9.4945e+01  2.3386e-02  5.4135e-03  1.8897e-03  0:10:39 1612
   389  2.3449e-02  8.1767e-03  2.5576e-02  9.5754e+01  2.3369e-02  5.3023e-03  1.8821e-03  0:08:31 1611
   390  2.3467e-02  8.0758e-03  2.5833e-02  9.7235e+01  2.3385e-02  5.1875e-03  1.8766e-03  0:06:48 1610
   391  2.3516e-02  7.9809e-03  2.6108e-02  9.9274e+01  2.3433e-02  5.0705e-03  1.8706e-03  0:05:27 1609
   392  2.3549e-02  7.8944e-03  2.6414e-02  1.0102e+02  2.3466e-02  4.9467e-03  1.8663e-03  0:09:43 1608
   393  2.3647e-02  7.8136e-03  2.6734e-02  1.0223e+02  2.3562e-02  4.8316e-03  1.8609e-03  0:07:46 1607
   394  2.3714e-02  7.7377e-03  2.7064e-02  1.0356e+02  2.3629e-02  4.7338e-03  1.8544e-03  0:06:12 1606
   395  2.3727e-02  7.6641e-03  2.7403e-02  1.0464e+02  2.3641e-02  4.6207e-03  1.8484e-03  0:10:19 1605
   396  2.3787e-02  7.5920e-03  2.7741e-02  1.0537e+02  2.3700e-02  4.5010e-03  1.8436e-03  0:08:15 1604

  iter  continuity  x-velocity  y-velocity  z-velocity      energy           k       omega     time/iter
   397  2.3776e-02  7.5226e-03  2.8076e-02  1.0550e+02  2.3689e-02  4.3825e-03  1.8414e-03  0:06:36 1603
   398  2.3774e-02  7.4574e-03  2.8410e-02  1.0508e+02  2.3686e-02  4.2709e-03  1.8358e-03  0:10:37 1602
   399  2.3742e-02  7.3980e-03  2.8746e-02  1.0456e+02  2.3655e-02  4.1621e-03  1.8324e-03  0:08:29 1601
   400  2.3722e-02  7.3438e-03  2.9074e-02  1.0391e+02  2.3634e-02  4.0575e-03  1.8331e-03  0:06:47 1600
   401  2.3654e-02  7.2962e-03  2.9391e-02  1.0334e+02  2.3567e-02  3.9541e-03  1.8341e-03  0:05:25 1599
   402  2.3595e-02  7.2535e-03  2.9695e-02  1.0301e+02  2.3507e-02  3.8547e-03  1.8358e-03  0:09:40 1598
   403  2.3513e-02  7.2162e-03  2.9988e-02  1.0260e+02  2.3425e-02  3.7706e-03  1.8380e-03  0:07:43 1597
   404  2.3434e-02  7.1838e-03  3.0270e-02  1.0205e+02  2.3346e-02  3.6958e-03  1.8456e-03  0:06:11 1596
   405  2.3347e-02  7.1584e-03  3.0538e-02  1.0143e+02  2.3260e-02  3.6287e-03  1.8525e-03  0:10:15 1595
   406  2.3271e-02  7.1388e-03  3.0790e-02  1.0105e+02  2.3184e-02  3.5797e-03  1.8604e-03  0:08:12 1594
   407  2.3205e-02  7.1235e-03  3.1028e-02  1.0089e+02  2.3118e-02  3.5350e-03  1.8701e-03  0:06:33 1593

  iter  continuity  x-velocity  y-velocity  z-velocity      energy           k       omega     time/iter
   408  2.3153e-02  7.1119e-03  3.1260e-02  1.0071e+02  2.3066e-02  3.5076e-03  1.8787e-03  0:10:33 1592
   409  2.3139e-02  7.1045e-03  3.1493e-02  1.0092e+02  2.3052e-02  3.4830e-03  1.8862e-03  0:08:26 1591
   410  2.3147e-02  7.1022e-03  3.1723e-02  1.0165e+02  2.3060e-02  3.4578e-03  1.8966e-03  0:06:44 1590
   411  2.3195e-02  7.1011e-03  3.1951e-02  1.0293e+02  2.3108e-02  3.4312e-03  1.9068e-03  0:05:23 1589
   412  2.3257e-02  7.1036e-03  3.2173e-02  1.0468e+02  2.3171e-02  3.4036e-03  1.9193e-03  0:09:36 1588
   413  2.3335e-02  7.1110e-03  3.2393e-02  1.0666e+02  2.3249e-02  3.3780e-03  1.9307e-03  0:07:41 1587
   414  2.3430e-02  7.1223e-03  3.2610e-02  1.0914e+02  2.3344e-02  3.3642e-03  1.9434e-03  0:06:08 1586
   415  2.3560e-02  7.1336e-03  3.2822e-02  1.1192e+02  2.3474e-02  3.3609e-03  1.9538e-03  0:10:11 1585
   416  2.3715e-02  7.1452e-03  3.3027e-02  1.1492e+02  2.3630e-02  3.3624e-03  1.9633e-03  0:08:09 1584
   417  2.3824e-02  7.1579e-03  3.3218e-02  1.1817e+02  2.3739e-02  3.3676e-03  1.9714e-03  0:06:31 1583
   418  2.3855e-02  7.1713e-03  3.3394e-02  1.2166e+02  2.3772e-02  3.3737e-03  1.9764e-03  0:10:29 1582

  iter  continuity  x-velocity  y-velocity  z-velocity      energy           k       omega     time/iter
   419  2.3847e-02  7.1837e-03  3.3542e-02  1.2510e+02  2.3764e-02  3.3868e-03  1.9759e-03  0:08:23 1581
   420  2.3870e-02  7.1952e-03  3.3675e-02  1.2862e+02  2.3788e-02  3.4014e-03  1.9748e-03  0:06:42 1580
   421  2.3951e-02  7.2075e-03  3.3794e-02  1.3216e+02  2.3870e-02  3.4125e-03  1.9726e-03  0:05:21 1579
   422  2.4123e-02  7.2215e-03  3.3909e-02  1.3547e+02  2.4043e-02  3.4220e-03  1.9688e-03  0:09:33 1578
   423  2.4366e-02  7.2372e-03  3.4029e-02  1.3863e+02  2.4286e-02  3.4310e-03  1.9641e-03  0:07:38 1577
   424  2.4623e-02  7.2535e-03  3.4181e-02  1.4177e+02  2.4543e-02  3.4377e-03  1.9627e-03  0:06:06 1576
   425  2.4902e-02  7.2707e-03  3.4379e-02  1.4481e+02  2.4823e-02  3.4435e-03  1.9587e-03  0:10:08 1575
   426  2.5173e-02  7.2894e-03  3.4580e-02  1.4778e+02  2.5094e-02  3.4520e-03  1.9552e-03  0:08:06 1574
   427  2.5573e-02  7.3122e-03  3.4844e-02  1.5084e+02  2.5494e-02  3.4565e-03  1.9537e-03  0:06:28 1573
   428  2.6114e-02  7.3382e-03  3.5233e-02  1.5373e+02  2.6035e-02  3.4600e-03  1.9527e-03  0:10:25 1572
   429  2.6854e-02  7.3684e-03  3.5852e-02  1.5614e+02  2.6774e-02  3.4637e-03  1.9527e-03  0:08:20 1571

  iter  continuity  x-velocity  y-velocity  z-velocity      energy           k       omega     time/iter
   430  2.7729e-02  7.4037e-03  3.6732e-02  1.5826e+02  2.7649e-02  3.4669e-03  1.9529e-03  0:06:39 1570
   431  2.8693e-02  7.4447e-03  3.7754e-02  1.6012e+02  2.8612e-02  3.4740e-03  1.9541e-03  0:05:19 1569
   432  2.9880e-02  7.4904e-03  3.9323e-02  1.6153e+02  2.9800e-02  3.4853e-03  1.9556e-03  0:09:29 1568
   433  3.1294e-02  7.5436e-03  4.1691e-02  1.6280e+02  3.1215e-02  3.4935e-03  1.9562e-03  0:07:35 1567
   434  3.2627e-02  7.6007e-03  4.3754e-02  1.6376e+02  3.2549e-02  3.5024e-03  1.9594e-03  0:06:04 1566
   435  3.3693e-02  7.6517e-03  4.5192e-02  1.6422e+02  3.3617e-02  3.5127e-03  1.9638e-03  0:10:04 1565
   436  3.4193e-02  7.6835e-03  4.5515e-02  1.6296e+02  3.4120e-02  3.5267e-03  1.9702e-03  0:08:03 1564
   437  3.4331e-02  7.6923e-03  4.5281e-02  1.6028e+02  3.4261e-02  3.5445e-03  1.9777e-03  0:06:26 1563
   438  3.3962e-02  7.6952e-03  4.4112e-02  1.5541e+02  3.3892e-02  3.5653e-03  1.9871e-03  0:10:21 1562
   439  3.3426e-02  7.7133e-03  4.2670e-02  1.4900e+02  3.3360e-02  3.5831e-03  1.9935e-03  0:08:16 1561
   440  3.2128e-02  7.7701e-03  4.0057e-02  1.3716e+02  3.2059e-02  3.6017e-03  1.9980e-03  0:06:37 1560

  iter  continuity  x-velocity  y-velocity  z-velocity      energy           k       omega     time/iter
   441  3.0663e-02  7.8376e-03  3.7709e-02  1.2522e+02  3.0590e-02  3.6226e-03  1.9985e-03  0:10:29 1559
   442  2.9338e-02  7.8949e-03  3.6149e-02  1.1500e+02  2.9264e-02  3.6449e-03  1.9947e-03  0:08:23 1558
   443  2.7648e-02  7.9343e-03  3.3501e-02  1.0474e+02  2.7572e-02  3.6685e-03  1.9908e-03  0:06:42 1557
   444  2.6233e-02  7.9518e-03  3.1820e-02  9.5463e+01  2.6155e-02  3.6965e-03  1.9843e-03  0:10:33 1556
   445  2.4881e-02  7.9560e-03  3.0663e-02  8.7099e+01  2.4802e-02  3.7240e-03  1.9782e-03  0:08:26 1555
   446  2.3569e-02  7.9630e-03  2.9873e-02  8.0073e+01  2.3491e-02  3.7545e-03  1.9711e-03  0:06:44 1554
   447  2.2587e-02  7.9743e-03  2.9299e-02  7.4511e+01  2.2512e-02  3.7852e-03  1.9651e-03  0:05:23 1553
   448  2.1848e-02  7.9948e-03  2.8860e-02  7.0611e+01  2.1775e-02  3.8132e-03  1.9592e-03  0:09:29 1552
   449  2.1398e-02  8.0249e-03  2.8499e-02  6.7793e+01  2.1329e-02  3.8480e-03  1.9554e-03  0:07:35 1551
   450  2.1175e-02  8.0614e-03  2.8176e-02  6.5700e+01  2.1108e-02  3.8810e-03  1.9497e-03  0:06:04 1550
   451  2.1048e-02  8.1010e-03  2.7879e-02  6.3658e+01  2.0984e-02  3.9155e-03  1.9445e-03  0:10:01 1549

  iter  continuity  x-velocity  y-velocity  z-velocity      energy           k       omega     time/iter
   452  2.0848e-02  8.1435e-03  2.7600e-02  6.1431e+01  2.0787e-02  3.9512e-03  1.9402e-03  0:08:00 1548
   453  2.0478e-02  8.1862e-03  2.7331e-02  5.8944e+01  2.0418e-02  3.9901e-03  1.9364e-03  0:06:24 1547
   454  1.9977e-02  8.2279e-03  2.7070e-02  5.6598e+01  1.9920e-02  4.0281e-03  1.9345e-03  0:10:16 1546
   455  1.9431e-02  8.2710e-03  2.6822e-02  5.4513e+01  1.9377e-02  4.0687e-03  1.9339e-03  0:08:13 1545
   456  1.8934e-02  8.3132e-03  2.6592e-02  5.2218e+01  1.8881e-02  4.1130e-03  1.9344e-03  0:06:34 1544
   457  1.8575e-02  8.3545e-03  2.6390e-02  5.0272e+01  1.8524e-02  4.1576e-03  1.9325e-03  0:05:15 1543
   458  1.8353e-02  8.3919e-03  2.6218e-02  4.8970e+01  1.8304e-02  4.1991e-03  1.9291e-03  0:09:20 1542
   459  1.8255e-02  8.4263e-03  2.6079e-02  4.8390e+01  1.8207e-02  4.2429e-03  1.9271e-03  0:07:28 1541
   460  1.8244e-02  8.4587e-03  2.5971e-02  4.8353e+01  1.8197e-02  4.2874e-03  1.9250e-03  0:05:58 1540
   461  1.8290e-02  8.4875e-03  2.5893e-02  4.8567e+01  1.8244e-02  4.3311e-03  1.9240e-03  0:09:54 1539
   462  1.8385e-02  8.5119e-03  2.5840e-02  4.8803e+01  1.8340e-02  4.3729e-03  1.9214e-03  0:07:55 1538

  iter  continuity  x-velocity  y-velocity  z-velocity      energy           k       omega     time/iter
   463  1.8524e-02  8.5329e-03  2.5805e-02  4.8087e+01  1.8479e-02  4.4122e-03  1.9181e-03  0:06:20 1537
   464  1.8695e-02  8.5518e-03  2.5785e-02  4.7041e+01  1.8651e-02  4.4507e-03  1.9121e-03  0:10:11 1536
   465  1.8901e-02  8.5680e-03  2.5769e-02  4.6018e+01  1.8857e-02  4.4891e-03  1.9070e-03  0:08:08 1535
   466  1.9134e-02  8.5822e-03  2.5750e-02  4.5396e+01  1.9090e-02  4.5309e-03  1.9027e-03  0:06:30 1534
   467  1.9365e-02  8.5944e-03  2.5720e-02  4.5419e+01  1.9322e-02  4.5722e-03  1.8927e-03  0:05:12 1533
   468  1.9615e-02  8.6031e-03  2.5674e-02  4.6280e+01  1.9572e-02  4.6107e-03  1.8830e-03  0:09:16 1532
   469  1.9883e-02  8.6123e-03  2.5609e-02  4.7020e+01  1.9840e-02  4.6513e-03  1.8738e-03  0:07:24 1531
   470  2.0152e-02  8.6192e-03  2.5521e-02  4.7841e+01  2.0108e-02  4.6924e-03  1.8635e-03  0:05:55 1530
   471  2.0424e-02  8.6200e-03  2.5411e-02  4.8756e+01  2.0381e-02  4.7353e-03  1.8530e-03  0:09:50 1529
   472  2.0707e-02  8.6149e-03  2.5283e-02  4.9660e+01  2.0663e-02  4.7796e-03  1.8447e-03  0:07:52 1528
   473  2.1006e-02  8.6110e-03  2.5137e-02  5.0491e+01  2.0962e-02  4.8205e-03  1.8378e-03  0:06:17 1527

  iter  continuity  x-velocity  y-velocity  z-velocity      energy           k       omega     time/iter
   474  2.1306e-02  8.6060e-03  2.4975e-02  5.0992e+01  2.1261e-02  4.8585e-03  1.8298e-03  0:10:07 1526
   475  2.1569e-02  8.5990e-03  2.4834e-02  5.1375e+01  2.1524e-02  4.8942e-03  1.8205e-03  0:08:05 1525
   476  2.1798e-02  8.5886e-03  2.4687e-02  5.1897e+01  2.1752e-02  4.9299e-03  1.8149e-03  0:06:28 1524
   477  2.1981e-02  8.5752e-03  2.4465e-02  5.2681e+01  2.1934e-02  4.9621e-03  1.8107e-03  0:05:10 1523
   478  2.2129e-02  8.5629e-03  2.4274e-02  5.3200e+01  2.2082e-02  4.9921e-03  1.8079e-03  0:09:12 1522
   479  2.2245e-02  8.5475e-03  2.4121e-02  5.3960e+01  2.2197e-02  5.0222e-03  1.8052e-03  0:07:21 1521
   480  2.2337e-02  8.5292e-03  2.4012e-02  5.5221e+01  2.2289e-02  5.0532e-03  1.8038e-03  0:05:53 1520
   481  2.2402e-02  8.5088e-03  2.3941e-02  5.7739e+01  2.2353e-02  5.0832e-03  1.8024e-03  0:09:46 1519
   482  2.2445e-02  8.4824e-03  2.3903e-02  6.0623e+01  2.2396e-02  5.1102e-03  1.8012e-03  0:07:48 1518
   483  2.2446e-02  8.4537e-03  2.3906e-02  6.4352e+01  2.2397e-02  5.1349e-03  1.8015e-03  0:06:15 1517
   484  2.2377e-02  8.4215e-03  2.3980e-02  6.9610e+01  2.2328e-02  5.1597e-03  1.8005e-03  0:10:03 1516

  iter  continuity  x-velocity  y-velocity  z-velocity      energy           k       omega     time/iter
   485  2.2240e-02  8.3871e-03  2.4111e-02  7.6191e+01  2.2191e-02  5.1868e-03  1.8023e-03  0:08:02 1515
   486  2.2016e-02  8.3513e-03  2.4289e-02  8.3605e+01  2.1967e-02  5.2136e-03  1.8038e-03  0:06:25 1514
   487  2.1707e-02  8.3145e-03  2.4502e-02  9.1263e+01  2.1658e-02  5.2414e-03  1.8041e-03  0:05:08 1513
   488  2.1297e-02  8.2773e-03  2.4822e-02  9.8298e+01  2.1249e-02  5.2681e-03  1.8025e-03  0:09:09 1512
   489  2.0812e-02  8.2417e-03  2.5188e-02  1.0409e+02  2.0765e-02  5.3023e-03  1.8022e-03  0:07:19 1511
   490  2.0232e-02  8.2055e-03  2.5540e-02  1.0840e+02  2.0187e-02  5.3333e-03  1.8022e-03  0:05:51 1510
   491  1.9627e-02  8.1697e-03  2.5888e-02  1.1122e+02  1.9582e-02  5.3590e-03  1.8014e-03  0:09:42 1509
   492  1.9054e-02  8.1344e-03  2.6267e-02  1.1241e+02  1.9011e-02  5.3817e-03  1.8014e-03  0:07:45 1508
   493  1.8515e-02  8.0996e-03  2.6695e-02  1.1259e+02  1.8472e-02  5.4040e-03  1.8005e-03  0:06:12 1507
   494  1.8015e-02  8.0575e-03  2.7089e-02  1.1097e+02  1.7973e-02  5.4251e-03  1.8003e-03  0:09:59 1506
   495  1.7562e-02  8.0132e-03  2.7592e-02  1.0966e+02  1.7521e-02  5.4348e-03  1.7974e-03  0:07:59 1505

  iter  continuity  x-velocity  y-velocity  z-velocity      energy           k       omega     time/iter
   496  1.7144e-02  7.9743e-03  2.8187e-02  1.0715e+02  1.7104e-02  5.4472e-03  1.7955e-03  0:06:23 1504
   497  1.6732e-02  7.9419e-03  2.8788e-02  1.0436e+02  1.6693e-02  5.4656e-03  1.7938e-03  0:05:06 1503
   498  1.6337e-02  7.9161e-03  2.9408e-02  1.0080e+02  1.6299e-02  5.4875e-03  1.7906e-03  0:09:05 1502
   499  1.5950e-02  7.8981e-03  3.0052e-02  9.7007e+01  1.5914e-02  5.5110e-03  1.7881e-03  0:07:16 1501
   500  1.5565e-02  7.8859e-03  3.0633e-02  9.2758e+01  1.5530e-02  5.5329e-03  1.7843e-03  0:05:48 1500
   501  1.5166e-02  7.8757e-03  3.1008e-02  8.8336e+01  1.5132e-02  5.5565e-03  1.7812e-03  0:09:38 1499
   502  1.4769e-02  7.8723e-03  3.1334e-02  8.4144e+01  1.4736e-02  5.5769e-03  1.7777e-03  0:07:42 1498
   503  1.4353e-02  7.8774e-03  3.1674e-02  7.9564e+01  1.4321e-02  5.5971e-03  1.7717e-03  0:06:10 1497
   504  1.3946e-02  7.8861e-03  3.1999e-02  7.5359e+01  1.3915e-02  5.6169e-03  1.7659e-03  0:09:55 1496
   505  1.3531e-02  7.8964e-03  3.2294e-02  7.0914e+01  1.3502e-02  5.6329e-03  1.7612e-03  0:07:55 1495
   506  1.3120e-02  7.9088e-03  3.2542e-02  6.6920e+01  1.3091e-02  5.6467e-03  1.7577e-03  0:06:20 1494

  iter  continuity  x-velocity  y-velocity  z-velocity      energy           k       omega     time/iter
   507  1.2713e-02  7.9217e-03  3.2733e-02  6.3111e+01  1.2686e-02  5.6601e-03  1.7532e-03  0:05:04 1493
   508  1.2316e-02  7.9358e-03  3.2870e-02  5.9834e+01  1.2289e-02  5.6715e-03  1.7498e-03  0:09:01 1492
   509  1.1946e-02  7.9535e-03  3.2955e-02  5.7124e+01  1.1921e-02  5.6787e-03  1.7455e-03  0:07:13 1491
   510  1.1608e-02  7.9732e-03  3.3014e-02  5.4856e+01  1.1583e-02  5.6885e-03  1.7408e-03  0:05:46 1490
   511  1.1292e-02  7.9935e-03  3.3025e-02  5.2789e+01  1.1268e-02  5.6941e-03  1.7364e-03  0:09:34 1489
   512  1.1006e-02  8.0180e-03  3.3000e-02  5.0302e+01  1.0983e-02  5.6973e-03  1.7342e-03  0:07:39 1488
   513  1.0772e-02  8.0425e-03  3.2965e-02  4.8394e+01  1.0749e-02  5.7011e-03  1.7312e-03  0:06:07 1487
   514  1.0589e-02  8.0670e-03  3.2892e-02  4.6936e+01  1.0567e-02  5.7048e-03  1.7287e-03  0:09:51 1486
   515  1.0459e-02  8.0899e-03  3.2762e-02  4.5705e+01  1.0438e-02  5.7085e-03  1.7291e-03  0:07:52 1485
   516  1.0385e-02  8.1138e-03  3.2587e-02  4.4859e+01  1.0365e-02  5.7118e-03  1.7259e-03  0:06:18 1484
   517  1.0374e-02  8.1372e-03  3.2398e-02  4.4250e+01  1.0354e-02  5.7119e-03  1.7223e-03  0:05:02 1483

  iter  continuity  x-velocity  y-velocity  z-velocity      energy           k       omega     time/iter
   518  1.0418e-02  8.1580e-03  3.2214e-02  4.3670e+01  1.0398e-02  5.7163e-03  1.7196e-03  0:08:58 1482
   519  1.0521e-02  8.1803e-03  3.2019e-02  4.3225e+01  1.0501e-02  5.7223e-03  1.7185e-03  0:07:10 1481
   520  1.0685e-02  8.2016e-03  3.1812e-02  4.2982e+01  1.0664e-02  5.7295e-03  1.7166e-03  0:05:44 1480
   521  1.0844e-02  8.2189e-03  3.1573e-02  4.2798e+01  1.0822e-02  5.7405e-03  1.7139e-03  0:09:31 1479
   522  1.1008e-02  8.2343e-03  3.1313e-02  4.2479e+01  1.0986e-02  5.7591e-03  1.7109e-03  0:07:36 1478
   523  1.1208e-02  8.2466e-03  3.1048e-02  4.2085e+01  1.1185e-02  5.7783e-03  1.7085e-03  0:06:05 1477
   524  1.1422e-02  8.2566e-03  3.0824e-02  4.1734e+01  1.1398e-02  5.7934e-03  1.7062e-03  0:09:47 1476
   525  1.1631e-02  8.2642e-03  3.0610e-02  4.1402e+01  1.1606e-02  5.8048e-03  1.7033e-03  0:07:49 1475
   526  1.1892e-02  8.2701e-03  3.0399e-02  4.1004e+01  1.1866e-02  5.8124e-03  1.7021e-03  0:06:15 1474
   527  1.2135e-02  8.2732e-03  3.0190e-02  4.0753e+01  1.2108e-02  5.8181e-03  1.7004e-03  0:05:00 1473
   528  1.2410e-02  8.2722e-03  2.9991e-02  4.0430e+01  1.2381e-02  5.8232e-03  1.6994e-03  0:08:54 1472

  iter  continuity  x-velocity  y-velocity  z-velocity      energy           k       omega     time/iter
   529  1.2720e-02  8.2679e-03  2.9804e-02  4.0672e+01  1.2690e-02  5.8269e-03  1.6971e-03  0:07:07 1471
   530  1.3030e-02  8.2625e-03  2.9638e-02  4.0440e+01  1.2998e-02  5.8283e-03  1.6955e-03  0:05:41 1470
   531  1.3356e-02  8.2556e-03  2.9498e-02  4.0368e+01  1.3322e-02  5.8281e-03  1.6947e-03  0:09:27 1469
   532  1.3702e-02  8.2461e-03  2.9368e-02  4.0626e+01  1.3667e-02  5.8313e-03  1.6950e-03  0:07:33 1468
   533  1.4061e-02  8.2343e-03  2.9252e-02  4.0729e+01  1.4024e-02  5.8364e-03  1.6952e-03  0:06:02 1467
   534  1.4433e-02  8.2207e-03  2.9151e-02  4.0765e+01  1.4394e-02  5.8400e-03  1.6955e-03  0:09:43 1466
   535  1.4805e-02  8.2055e-03  2.9057e-02  4.0825e+01  1.4765e-02  5.8462e-03  1.6951e-03  0:07:46 1465
   536  1.5190e-02  8.1876e-03  2.8976e-02  4.1008e+01  1.5149e-02  5.8509e-03  1.6962e-03  0:06:12 1464
   537  1.5586e-02  8.1674e-03  2.8904e-02  4.1271e+01  1.5543e-02  5.8486e-03  1.6968e-03  0:04:58 1463
   538  1.5979e-02  8.1444e-03  2.8850e-02  4.1563e+01  1.5935e-02  5.8512e-03  1.6961e-03  0:08:50 1462
   539  1.6377e-02  8.1193e-03  2.8812e-02  4.1941e+01  1.6331e-02  5.8520e-03  1.6958e-03  0:07:04 1461

  iter  continuity  x-velocity  y-velocity  z-velocity      energy           k       omega     time/iter
   540  1.6793e-02  8.0921e-03  2.8788e-02  4.2212e+01  1.6745e-02  5.8537e-03  1.6958e-03  0:05:39 1460
   541  1.7207e-02  8.0630e-03  2.8780e-02  4.2353e+01  1.7158e-02  5.8577e-03  1.6971e-03  0:09:23 1459
   542  1.7641e-02  8.0322e-03  2.8785e-02  4.2632e+01  1.7591e-02  5.8644e-03  1.6978e-03  0:07:30 1458
   543  1.8085e-02  8.0013e-03  2.8799e-02  4.2796e+01  1.8033e-02  5.8719e-03  1.6995e-03  0:06:00 1457
   544  1.8533e-02  7.9689e-03  2.8825e-02  4.2933e+01  1.8480e-02  5.8797e-03  1.7010e-03  0:04:48 1456
   545  1.8983e-02  7.9343e-03  2.8864e-02  4.3080e+01  1.8929e-02  5.8830e-03  1.7011e-03  0:08:41 1455
   546  1.9432e-02  7.8971e-03  2.8915e-02  4.3296e+01  1.9377e-02  5.8838e-03  1.7029e-03  0:06:56 1454
   547  1.9880e-02  7.8575e-03  2.8980e-02  4.3414e+01  1.9824e-02  5.8836e-03  1.7059e-03  0:05:33 1453
   548  2.0316e-02  7.8157e-03  2.9052e-02  4.3529e+01  2.0259e-02  5.8866e-03  1.7113e-03  0:09:17 1452
   549  2.0737e-02  7.7725e-03  2.9130e-02  4.3377e+01  2.0679e-02  5.8894e-03  1.7174e-03  0:07:25 1451
   550  2.1140e-02  7.7280e-03  2.9220e-02  4.3160e+01  2.1081e-02  5.8886e-03  1.7247e-03  0:05:56 1450

  iter  continuity  x-velocity  y-velocity  z-velocity      energy           k       omega     time/iter
   551  2.1516e-02  7.6827e-03  2.9314e-02  4.2806e+01  2.1456e-02  5.8872e-03  1.7329e-03  0:09:34 1449
   552  2.1862e-02  7.6366e-03  2.9410e-02  4.2177e+01  2.1802e-02  5.8837e-03  1.7397e-03  0:07:39 1448
   553  2.2174e-02  7.5894e-03  2.9503e-02  4.1286e+01  2.2113e-02  5.8817e-03  1.7451e-03  0:06:07 1447
   554  2.2450e-02  7.5412e-03  2.9594e-02  4.0377e+01  2.2388e-02  5.8807e-03  1.7500e-03  0:04:53 1446
   555  2.2690e-02  7.4926e-03  2.9679e-02  3.9677e+01  2.2627e-02  5.8803e-03  1.7560e-03  0:08:44 1445
   556  2.2895e-02  7.4442e-03  2.9758e-02  3.8988e+01  2.2832e-02  5.8800e-03  1.7627e-03  0:06:59 1444
   557  2.3071e-02  7.3958e-03  2.9827e-02  3.8271e+01  2.3008e-02  5.8852e-03  1.7719e-03  0:05:35 1443
   558  2.3217e-02  7.3480e-03  2.9885e-02  3.7565e+01  2.3154e-02  5.8940e-03  1.7834e-03  0:09:16 1442
   559  2.3333e-02  7.2993e-03  2.9931e-02  3.7065e+01  2.3270e-02  5.9050e-03  1.7929e-03  0:07:24 1441
   560  2.3417e-02  7.2496e-03  2.9966e-02  3.6827e+01  2.3354e-02  5.9132e-03  1.8021e-03  0:05:55 1440
   561  2.3466e-02  7.2003e-03  2.9987e-02  3.6591e+01  2.3403e-02  5.9277e-03  1.8115e-03  0:09:32 1439

  iter  continuity  x-velocity  y-velocity  z-velocity      energy           k       omega     time/iter
   562  2.3478e-02  7.1526e-03  2.9994e-02  3.6596e+01  2.3415e-02  5.9512e-03  1.8195e-03  0:07:37 1438
   563  2.3456e-02  7.1080e-03  2.9986e-02  3.6860e+01  2.3394e-02  5.9664e-03  1.8283e-03  0:06:05 1437
   564  2.3399e-02  7.0658e-03  2.9965e-02  3.7749e+01  2.3337e-02  5.9793e-03  1.8354e-03  0:04:52 1436
   565  2.3307e-02  7.0252e-03  2.9931e-02  3.8945e+01  2.3246e-02  5.9915e-03  1.8431e-03  0:08:41 1435
   566  2.3184e-02  6.9863e-03  2.9883e-02  4.0310e+01  2.3123e-02  6.0077e-03  1.8540e-03  0:06:56 1434
   567  2.3032e-02  6.9493e-03  2.9822e-02  4.1608e+01  2.2971e-02  6.0254e-03  1.8618e-03  0:05:33 1433
   568  2.2853e-02  6.9146e-03  2.9750e-02  4.2789e+01  2.2794e-02  6.0437e-03  1.8703e-03  0:09:12 1432
   569  2.2647e-02  6.8824e-03  2.9668e-02  4.3703e+01  2.2588e-02  6.0604e-03  1.8761e-03  0:07:22 1431
   570  2.2419e-02  6.8529e-03  2.9578e-02  4.4209e+01  2.2360e-02  6.0772e-03  1.8843e-03  0:05:53 1430
   571  2.2168e-02  6.8265e-03  2.9482e-02  4.4516e+01  2.2111e-02  6.0935e-03  1.8924e-03  0:09:28 1429
   572  2.1899e-02  6.8027e-03  2.9383e-02  4.4485e+01  2.1842e-02  6.1098e-03  1.8990e-03  0:07:34 1428

  iter  continuity  x-velocity  y-velocity  z-velocity      energy           k       omega     time/iter
   573  2.1607e-02  6.7807e-03  2.9282e-02  4.4083e+01  2.1551e-02  6.1300e-03  1.9062e-03  0:06:03 1427
   574  2.1296e-02  6.7608e-03  2.9182e-02  4.3180e+01  2.1241e-02  6.1521e-03  1.9130e-03  0:04:50 1426
   575  2.0966e-02  6.7425e-03  2.9085e-02  4.2975e+01  2.0912e-02  6.1717e-03  1.9200e-03  0:08:37 1425
   576  2.0616e-02  6.7260e-03  2.8992e-02  4.3492e+01  2.0563e-02  6.1926e-03  1.9266e-03  0:06:53 1424
   577  2.0246e-02  6.7116e-03  2.8905e-02  4.3738e+01  2.0194e-02  6.2125e-03  1.9299e-03  0:05:30 1423
   578  1.9856e-02  6.6994e-03  2.8825e-02  4.3669e+01  1.9806e-02  6.2316e-03  1.9342e-03  0:09:09 1422
   579  1.9449e-02  6.6893e-03  2.8755e-02  4.3434e+01  1.9399e-02  6.2561e-03  1.9379e-03  0:07:19 1421
   580  1.9026e-02  6.6806e-03  2.8697e-02  4.2756e+01  1.8977e-02  6.2819e-03  1.9440e-03  0:05:51 1420
   581  1.8590e-02  6.6732e-03  2.8653e-02  4.2409e+01  1.8543e-02  6.3079e-03  1.9500e-03  0:09:24 1419
   582  1.8142e-02  6.6672e-03  2.8621e-02  4.2329e+01  1.8096e-02  6.3342e-03  1.9546e-03  0:07:31 1418
   583  1.7684e-02  6.6624e-03  2.8603e-02  4.2406e+01  1.7638e-02  6.3612e-03  1.9596e-03  0:06:00 1417

  iter  continuity  x-velocity  y-velocity  z-velocity      energy           k       omega     time/iter
   584  1.7216e-02  6.6601e-03  2.8600e-02  4.1661e+01  1.7172e-02  6.3815e-03  1.9621e-03  0:04:48 1416
   585  1.6741e-02  6.6597e-03  2.8611e-02  4.0719e+01  1.6698e-02  6.4095e-03  1.9650e-03  0:08:33 1415
   586  1.6260e-02  6.6610e-03  2.8639e-02  3.9994e+01  1.6218e-02  6.4356e-03  1.9660e-03  0:06:50 1414
   587  1.5777e-02  6.6638e-03  2.8681e-02  3.9357e+01  1.5736e-02  6.4525e-03  1.9650e-03  0:05:28 1413
   588  1.5296e-02  6.6682e-03  2.8737e-02  3.8897e+01  1.5256e-02  6.4602e-03  1.9679e-03  0:09:05 1412
   589  1.4820e-02  6.6742e-03  2.8806e-02  3.8517e+01  1.4781e-02  6.4606e-03  1.9676e-03  0:07:15 1411
   590  1.4352e-02  6.6813e-03  2.8888e-02  3.8336e+01  1.4314e-02  6.4629e-03  1.9608e-03  0:05:48 1410
   591  1.3897e-02  6.6891e-03  2.8983e-02  3.8232e+01  1.3860e-02  6.4569e-03  1.9561e-03  0:09:20 1409
   592  1.3460e-02  6.6976e-03  2.9089e-02  3.8124e+01  1.3423e-02  6.4547e-03  1.9500e-03  0:07:28 1408
   593  1.3044e-02  6.7064e-03  2.9205e-02  3.8170e+01  1.3008e-02  6.4462e-03  1.9347e-03  0:05:58 1407
   594  1.2645e-02  6.7147e-03  2.9332e-02  3.9364e+01  1.2610e-02  6.4307e-03  1.9205e-03  0:04:46 1406

  iter  continuity  x-velocity  y-velocity  z-velocity      energy           k       omega     time/iter
   595  1.2260e-02  6.7231e-03  2.9467e-02  4.0135e+01  1.2225e-02  6.4121e-03  1.9123e-03  0:08:30 1405
   596  1.1877e-02  6.7315e-03  2.9607e-02  4.0559e+01  1.1843e-02  6.3970e-03  1.9067e-03  0:06:48 1404
   597  1.1479e-02  6.7399e-03  2.9748e-02  4.1399e+01  1.1445e-02  6.3827e-03  1.9026e-03  0:05:26 1403
   598  1.1057e-02  6.7490e-03  2.9888e-02  4.2260e+01  1.1024e-02  6.3674e-03  1.8986e-03  0:09:01 1402
   599  1.0640e-02  6.7589e-03  3.0022e-02  4.3225e+01  1.0606e-02  6.3490e-03  1.8925e-03  0:07:12 1401
   600  1.0261e-02  6.7692e-03  3.0149e-02  4.4103e+01  1.0227e-02  6.3423e-03  1.8862e-03  0:05:46 1400
   601  9.9509e-03  6.7796e-03  3.0266e-02  4.5168e+01  9.9171e-03  6.3341e-03  1.8807e-03  0:09:16 1399
   602  9.7327e-03  6.7897e-03  3.0369e-02  4.6471e+01  9.6985e-03  6.3235e-03  1.8723e-03  0:07:25 1398
   603  9.6240e-03  6.7997e-03  3.0454e-02  4.7245e+01  9.5892e-03  6.3056e-03  1.8677e-03  0:05:55 1397
   604  9.6343e-03  6.8092e-03  3.0520e-02  4.7792e+01  9.5988e-03  6.2749e-03  1.8562e-03  0:04:44 1396
   605  9.7666e-03  6.8179e-03  3.0566e-02  4.8361e+01  9.7303e-03  6.2399e-03  1.8396e-03  0:08:26 1395

  iter  continuity  x-velocity  y-velocity  z-velocity      energy           k       omega     time/iter
   606  1.0020e-02  6.8258e-03  3.0590e-02  4.8982e+01  9.9830e-03  6.1899e-03  1.8282e-03  0:06:45 1394
   607  1.0383e-02  6.8328e-03  3.0592e-02  4.9405e+01  1.0345e-02  6.1446e-03  1.8245e-03  0:05:23 1393
   608  1.0836e-02  6.8389e-03  3.0572e-02  4.9766e+01  1.0797e-02  6.1013e-03  1.8177e-03  0:08:57 1392
   609  1.1366e-02  6.8437e-03  3.0531e-02  5.0022e+01  1.1325e-02  6.0530e-03  1.8033e-03  0:07:09 1391
   610  1.1954e-02  6.8473e-03  3.0469e-02  5.0171e+01  1.1912e-02  6.0036e-03  1.7911e-03  0:05:43 1390
   611  1.2587e-02  6.8498e-03  3.0390e-02  5.0156e+01  1.2544e-02  5.9543e-03  1.7809e-03  0:09:12 1389
   612  1.3251e-02  6.8514e-03  3.0295e-02  5.0018e+01  1.3207e-02  5.8967e-03  1.7708e-03  0:07:21 1388
   613  1.3937e-02  6.8518e-03  3.0190e-02  4.9749e+01  1.3891e-02  5.8363e-03  1.7580e-03  0:05:53 1387
   614  1.4637e-02  6.8505e-03  3.0076e-02  4.9376e+01  1.4589e-02  5.7764e-03  1.7517e-03  0:04:42 1386
   615  1.5342e-02  6.8473e-03  2.9957e-02  4.8861e+01  1.5294e-02  5.7111e-03  1.7490e-03  0:08:23 1385
   616  1.6050e-02  6.8421e-03  2.9836e-02  4.8247e+01  1.6000e-02  5.6511e-03  1.7447e-03  0:06:42 1384

  iter  continuity  x-velocity  y-velocity  z-velocity      energy           k       omega     time/iter
   617  1.6749e-02  6.8344e-03  2.9717e-02  4.7546e+01  1.6698e-02  5.5935e-03  1.7434e-03  0:05:21 1383
   618  1.7436e-02  6.8236e-03  2.9602e-02  4.6715e+01  1.7384e-02  5.5403e-03  1.7404e-03  0:08:53 1382
   619  1.8108e-02  6.8105e-03  2.9494e-02  4.5832e+01  1.8054e-02  5.4865e-03  1.7345e-03  0:07:06 1381
   620  1.8752e-02  6.7952e-03  2.9393e-02  4.5012e+01  1.8697e-02  5.4326e-03  1.7265e-03  0:05:41 1380
   621  1.9354e-02  6.7776e-03  2.9297e-02  4.4416e+01  1.9298e-02  5.3744e-03  1.7172e-03  0:09:08 1379
   622  1.9908e-02  6.7581e-03  2.9208e-02  4.3680e+01  1.9851e-02  5.3139e-03  1.7084e-03  0:07:18 1378
   623  2.0409e-02  6.7368e-03  2.9128e-02  4.2730e+01  2.0351e-02  5.2546e-03  1.7002e-03  0:05:50 1377
   624  2.0853e-02  6.7141e-03  2.9058e-02  4.2058e+01  2.0795e-02  5.1961e-03  1.6949e-03  0:04:40 1376
   625  2.1246e-02  6.6906e-03  2.9000e-02  4.1373e+01  2.1187e-02  5.1315e-03  1.6919e-03  0:08:19 1375
   626  2.1586e-02  6.6667e-03  2.8956e-02  4.0719e+01  2.1527e-02  5.0720e-03  1.6889e-03  0:06:39 1374
[...]
  1839  3.7578e-03  4.1549e-03  2.0859e-02  3.8126e+01  3.7454e-03  1.3568e-03  6.8432e-04  0:01:07  161
  1840  3.7650e-03  4.1523e-03  2.0915e-02  3.6568e+01  3.7527e-03  1.3564e-03  6.8323e-04  0:01:25  160
  1841  3.7714e-03  4.1496e-03  2.0972e-02  3.4978e+01  3.7591e-03  1.3559e-03  6.8237e-04  0:01:08  159
  1842  3.7772e-03  4.1470e-03  2.1031e-02  3.3564e+01  3.7649e-03  1.3554e-03  6.8173e-04  0:01:26  158
  1843  3.7828e-03  4.1445e-03  2.1091e-02  3.2443e+01  3.7705e-03  1.3546e-03  6.8130e-04  0:01:08  157
  1844  3.7885e-03  4.1421e-03  2.1151e-02  3.1626e+01  3.7763e-03  1.3538e-03  6.8096e-04  0:01:25  156
  1845  3.7949e-03  4.1397e-03  2.1212e-02  3.0996e+01  3.7826e-03  1.3528e-03  6.8046e-04  0:01:08  155
  1846  3.8023e-03  4.1371e-03  2.1274e-02  3.0582e+01  3.7901e-03  1.3516e-03  6.7944e-04  0:01:25  154
  1847  3.8112e-03  4.1343e-03  2.1337e-02  3.0506e+01  3.7990e-03  1.3506e-03  6.7878e-04  0:01:07  153
  1848  3.8218e-03  4.1315e-03  2.1401e-02  3.0715e+01  3.8097e-03  1.3495e-03  6.7786e-04  0:01:24  152

  iter  continuity  x-velocity  y-velocity  z-velocity      energy           k       omega     time/iter
  1849  3.8344e-03  4.1286e-03  2.1465e-02  3.1154e+01  3.8223e-03  1.3486e-03  6.7708e-04  0:01:07  151
  1850  3.8486e-03  4.1256e-03  2.1530e-02  3.1686e+01  3.8365e-03  1.3474e-03  6.7642e-04  0:01:23  150
  1851  3.8641e-03  4.1225e-03  2.1594e-02  3.2299e+01  3.8520e-03  1.3462e-03  6.7574e-04  0:01:06  149
  1852  3.8809e-03  4.1194e-03  2.1660e-02  3.2964e+01  3.8689e-03  1.3448e-03  6.7498e-04  0:01:22  148
  1853  3.8990e-03  4.1162e-03  2.1727e-02  3.3577e+01  3.8870e-03  1.3433e-03  6.7412e-04  0:01:05  147
  1854  3.9185e-03  4.1131e-03  2.1796e-02  3.4211e+01  3.9065e-03  1.3419e-03  6.7329e-04  0:01:21  146
  1855  3.9406e-03  4.1099e-03  2.1865e-02  3.4763e+01  3.9286e-03  1.3406e-03  6.7243e-04  0:01:04  145
  1856  3.9622e-03  4.1065e-03  2.1936e-02  3.5217e+01  3.9502e-03  1.3394e-03  6.7144e-04  0:01:20  144
  1857  3.9838e-03  4.1032e-03  2.2007e-02  3.5570e+01  3.9718e-03  1.3384e-03  6.7033e-04  0:01:03  143
  1858  4.0057e-03  4.0999e-03  2.2080e-02  3.5721e+01  3.9938e-03  1.3373e-03  6.6915e-04  0:01:19  142
  1859  4.0260e-03  4.0966e-03  2.2154e-02  3.5665e+01  4.0141e-03  1.3361e-03  6.6833e-04  0:01:03  141

  iter  continuity  x-velocity  y-velocity  z-velocity      energy           k       omega     time/iter
  1860  4.0449e-03  4.0934e-03  2.2228e-02  3.5333e+01  4.0331e-03  1.3348e-03  6.6757e-04  0:01:18  140
  1861  4.0630e-03  4.0901e-03  2.2303e-02  3.4754e+01  4.0512e-03  1.3334e-03  6.6679e-04  0:01:02  139
  1862  4.0812e-03  4.0868e-03  2.2378e-02  3.3983e+01  4.0694e-03  1.3319e-03  6.6579e-04  0:01:17  138
  1863  4.0977e-03  4.0836e-03  2.2454e-02  3.3101e+01  4.0860e-03  1.3304e-03  6.6501e-04  0:01:01  137
  1864  4.1134e-03  4.0803e-03  2.2530e-02  3.2212e+01  4.1017e-03  1.3288e-03  6.6397e-04  0:01:16  136
  1865  4.1281e-03  4.0771e-03  2.2607e-02  3.1324e+01  4.1164e-03  1.3273e-03  6.6288e-04  0:01:00  135
  1866  4.1415e-03  4.0739e-03  2.2685e-02  3.0546e+01  4.1298e-03  1.3256e-03  6.6183e-04  0:01:14  134
  1867  4.1531e-03  4.0708e-03  2.2762e-02  2.9865e+01  4.1415e-03  1.3239e-03  6.6030e-04  0:00:59  133
  1868  4.1637e-03  4.0677e-03  2.2840e-02  2.9306e+01  4.1522e-03  1.3219e-03  6.5886e-04  0:01:13  132
  1869  4.1738e-03  4.0646e-03  2.2918e-02  2.8797e+01  4.1623e-03  1.3197e-03  6.5816e-04  0:00:58  131
  1870  4.1791e-03  4.0615e-03  2.2996e-02  2.8321e+01  4.1677e-03  1.3175e-03  6.5701e-04  0:01:12  130

  iter  continuity  x-velocity  y-velocity  z-velocity      energy           k       omega     time/iter
  1871  4.1807e-03  4.0584e-03  2.3074e-02  2.7954e+01  4.1693e-03  1.3153e-03  6.5549e-04  0:00:57  129
  1872  4.1795e-03  4.0553e-03  2.3152e-02  2.7670e+01  4.1682e-03  1.3130e-03  6.5409e-04  0:01:11  128
  1873  4.1764e-03  4.0523e-03  2.3229e-02  2.7443e+01  4.1651e-03  1.3106e-03  6.5283e-04  0:00:56  127
  1874  4.1716e-03  4.0492e-03  2.3307e-02  2.7249e+01  4.1603e-03  1.3082e-03  6.5170e-04  0:01:10  126
  1875  4.1644e-03  4.0462e-03  2.3384e-02  2.7173e+01  4.1531e-03  1.3055e-03  6.5063e-04  0:00:56  125
  1876  4.1547e-03  4.0431e-03  2.3461e-02  2.7211e+01  4.1435e-03  1.3029e-03  6.4915e-04  0:01:09  124
  1877  4.1428e-03  4.0401e-03  2.3537e-02  2.7304e+01  4.1317e-03  1.3003e-03  6.4772e-04  0:00:55  123
  1878  4.1293e-03  4.0370e-03  2.3613e-02  2.7399e+01  4.1182e-03  1.2976e-03  6.4630e-04  0:01:08  122
  1879  4.1150e-03  4.0340e-03  2.3689e-02  2.7452e+01  4.1040e-03  1.2950e-03  6.4481e-04  0:00:54  121
  1880  4.1002e-03  4.0310e-03  2.3763e-02  2.7540e+01  4.0892e-03  1.2926e-03  6.4348e-04  0:01:07  120
  1881  4.0850e-03  4.0280e-03  2.3837e-02  2.7618e+01  4.0740e-03  1.2902e-03  6.4202e-04  0:00:53  119

  iter  continuity  x-velocity  y-velocity  z-velocity      energy           k       omega     time/iter
  1882  4.0697e-03  4.0250e-03  2.3910e-02  2.7601e+01  4.0588e-03  1.2879e-03  6.4043e-04  0:01:06  118
  1883  4.0545e-03  4.0220e-03  2.3982e-02  2.7511e+01  4.0437e-03  1.2855e-03  6.3898e-04  0:00:52  117
  1884  4.0400e-03  4.0190e-03  2.4053e-02  2.7413e+01  4.0291e-03  1.2832e-03  6.3769e-04  0:01:04  116
  1885  4.0263e-03  4.0159e-03  2.4122e-02  2.7341e+01  4.0155e-03  1.2806e-03  6.3644e-04  0:00:51  115
  1886  4.0152e-03  4.0128e-03  2.4190e-02  2.7269e+01  4.0044e-03  1.2783e-03  6.3515e-04  0:01:03  114
  1887  4.0045e-03  4.0096e-03  2.4257e-02  2.7198e+01  3.9937e-03  1.2763e-03  6.3386e-04  0:00:50  113
  1888  3.9933e-03  4.0064e-03  2.4321e-02  2.7059e+01  3.9825e-03  1.2745e-03  6.3257e-04  0:01:02  112
  1889  3.9812e-03  4.0030e-03  2.4383e-02  2.6985e+01  3.9705e-03  1.2729e-03  6.3128e-04  0:00:49  111
  1890  3.9687e-03  3.9997e-03  2.4444e-02  2.6957e+01  3.9580e-03  1.2718e-03  6.3008e-04  0:01:01  110
  1891  3.9571e-03  3.9965e-03  2.4504e-02  2.6920e+01  3.9464e-03  1.2713e-03  6.2902e-04  0:00:48  109
  1892  3.9434e-03  3.9932e-03  2.4561e-02  2.6855e+01  3.9326e-03  1.2709e-03  6.2801e-04  0:01:00  108

  iter  continuity  x-velocity  y-velocity  z-velocity      energy           k       omega     time/iter
  1893  3.9289e-03  3.9899e-03  2.4617e-02  2.6841e+01  3.9182e-03  1.2706e-03  6.2695e-04  0:00:48  107
  1894  3.9131e-03  3.9866e-03  2.4671e-02  2.6810e+01  3.9024e-03  1.2705e-03  6.2592e-04  0:00:59  106
  1895  3.8974e-03  3.9833e-03  2.4723e-02  2.6716e+01  3.8867e-03  1.2702e-03  6.2484e-04  0:00:47  105
  1896  3.8799e-03  3.9799e-03  2.4773e-02  2.6633e+01  3.8692e-03  1.2700e-03  6.2367e-04  0:00:58  104
  1897  3.8610e-03  3.9766e-03  2.4822e-02  2.6577e+01  3.8502e-03  1.2699e-03  6.2249e-04  0:00:46  103
  1898  3.8417e-03  3.9733e-03  2.4870e-02  2.6511e+01  3.8309e-03  1.2698e-03  6.2129e-04  0:00:57  102
  1899  3.8233e-03  3.9701e-03  2.4917e-02  2.6410e+01  3.8125e-03  1.2695e-03  6.2029e-04  0:00:45  101
  1900  3.8063e-03  3.9670e-03  2.4963e-02  2.6357e+01  3.7956e-03  1.2690e-03  6.1924e-04  0:00:56  100
  1901  3.7887e-03  3.9640e-03  2.5007e-02  2.6305e+01  3.7779e-03  1.2682e-03  6.1825e-04  0:00:44   99
  1902  3.7694e-03  3.9611e-03  2.5052e-02  2.6164e+01  3.7586e-03  1.2675e-03  6.1713e-04  0:00:54   98
  1903  3.7482e-03  3.9582e-03  2.5095e-02  2.5948e+01  3.7374e-03  1.2669e-03  6.1615e-04  0:00:43   97

  iter  continuity  x-velocity  y-velocity  z-velocity      energy           k       omega     time/iter
  1904  3.7258e-03  3.9552e-03  2.5139e-02  2.5722e+01  3.7150e-03  1.2664e-03  6.1532e-04  0:00:53   96
  1905  3.7014e-03  3.9522e-03  2.5182e-02  2.5475e+01  3.6906e-03  1.2659e-03  6.1448e-04  0:00:42   95
  1906  3.6750e-03  3.9491e-03  2.5225e-02  2.5171e+01  3.6641e-03  1.2653e-03  6.1383e-04  0:00:52   94
  1907  3.6465e-03  3.9460e-03  2.5268e-02  2.4873e+01  3.6356e-03  1.2645e-03  6.1317e-04  0:00:41   93
  1908  3.6176e-03  3.9427e-03  2.5312e-02  2.4654e+01  3.6066e-03  1.2634e-03  6.1238e-04  0:00:51   92
  1909  3.5895e-03  3.9394e-03  2.5356e-02  2.4576e+01  3.5786e-03  1.2624e-03  6.1167e-04  0:00:40   91
  1910  3.5617e-03  3.9358e-03  2.5400e-02  2.4523e+01  3.5508e-03  1.2616e-03  6.1092e-04  0:00:50   90
  1911  3.5290e-03  3.9320e-03  2.5444e-02  2.4473e+01  3.5181e-03  1.2606e-03  6.1024e-04  0:00:40   89
  1912  3.4946e-03  3.9279e-03  2.5488e-02  2.4424e+01  3.4836e-03  1.2596e-03  6.0958e-04  0:00:49   88
  1913  3.4594e-03  3.9235e-03  2.5532e-02  2.4340e+01  3.4484e-03  1.2587e-03  6.0887e-04  0:00:39   87
  1914  3.4240e-03  3.9189e-03  2.5576e-02  2.4282e+01  3.4130e-03  1.2578e-03  6.0814e-04  0:00:48   86

  iter  continuity  x-velocity  y-velocity  z-velocity      energy           k       omega     time/iter
  1915  3.3893e-03  3.9142e-03  2.5621e-02  2.4191e+01  3.3783e-03  1.2570e-03  6.0722e-04  0:00:38   85
  1916  3.3591e-03  3.9092e-03  2.5665e-02  2.4081e+01  3.3480e-03  1.2564e-03  6.0654e-04  0:00:47   84
  1917  3.3300e-03  3.9040e-03  2.5709e-02  2.3960e+01  3.3189e-03  1.2559e-03  6.0580e-04  0:00:37   83
  1918  3.3074e-03  3.8986e-03  2.5753e-02  2.3872e+01  3.2962e-03  1.2554e-03  6.0510e-04  0:00:46   82
  1919  3.2827e-03  3.8929e-03  2.5797e-02  2.3774e+01  3.2715e-03  1.2548e-03  6.0449e-04  0:00:36   81
  1920  3.2581e-03  3.8871e-03  2.5841e-02  2.3707e+01  3.2469e-03  1.2540e-03  6.0382e-04  0:00:44   80
  1921  3.2381e-03  3.8810e-03  2.5884e-02  2.3718e+01  3.2268e-03  1.2536e-03  6.0301e-04  0:00:35   79
  1922  3.2119e-03  3.8748e-03  2.5927e-02  2.3846e+01  3.2006e-03  1.2530e-03  6.0229e-04  0:00:43   78
  1923  3.1806e-03  3.8686e-03  2.5970e-02  2.4051e+01  3.1692e-03  1.2525e-03  6.0150e-04  0:00:34   77
  1924  3.1532e-03  3.8624e-03  2.6012e-02  2.4258e+01  3.1418e-03  1.2519e-03  6.0085e-04  0:00:42   76
  1925  3.1343e-03  3.8564e-03  2.6054e-02  2.4519e+01  3.1228e-03  1.2513e-03  6.0023e-04  0:00:33   75

  iter  continuity  x-velocity  y-velocity  z-velocity      energy           k       omega     time/iter
  1926  3.1179e-03  3.8503e-03  2.6095e-02  2.4798e+01  3.1064e-03  1.2508e-03  5.9956e-04  0:00:41   74
  1927  3.1036e-03  3.8443e-03  2.6136e-02  2.4979e+01  3.0920e-03  1.2504e-03  5.9895e-04  0:00:32   73
  1928  3.0941e-03  3.8384e-03  2.6176e-02  2.4997e+01  3.0825e-03  1.2500e-03  5.9830e-04  0:00:40   72
  1929  3.0884e-03  3.8325e-03  2.6217e-02  2.4877e+01  3.0767e-03  1.2496e-03  5.9780e-04  0:00:32   71
  1930  3.0918e-03  3.8268e-03  2.6257e-02  2.4762e+01  3.0800e-03  1.2491e-03  5.9745e-04  0:00:39   70
  1931  3.0869e-03  3.8212e-03  2.6297e-02  2.4701e+01  3.0751e-03  1.2487e-03  5.9717e-04  0:00:31   69
  1932  3.0808e-03  3.8158e-03  2.6336e-02  2.4598e+01  3.0690e-03  1.2483e-03  5.9693e-04  0:00:38   68
  1933  3.0788e-03  3.8104e-03  2.6375e-02  2.4464e+01  3.0669e-03  1.2479e-03  5.9615e-04  0:00:30   67
  1934  3.0833e-03  3.8053e-03  2.6415e-02  2.4315e+01  3.0714e-03  1.2475e-03  5.9533e-04  0:00:37   66
  1935  3.0843e-03  3.8004e-03  2.6453e-02  2.4180e+01  3.0724e-03  1.2473e-03  5.9517e-04  0:00:29   65
  1936  3.0867e-03  3.7957e-03  2.6492e-02  2.4038e+01  3.0748e-03  1.2472e-03  5.9512e-04  0:00:36   64

  iter  continuity  x-velocity  y-velocity  z-velocity      energy           k       omega     time/iter
  1937  3.0896e-03  3.7912e-03  2.6531e-02  2.3886e+01  3.0777e-03  1.2474e-03  5.9511e-04  0:00:28   63
  1938  3.0946e-03  3.7869e-03  2.6569e-02  2.3765e+01  3.0827e-03  1.2476e-03  5.9502e-04  0:00:34   62
  1939  3.0995e-03  3.7827e-03  2.6607e-02  2.3758e+01  3.0876e-03  1.2478e-03  5.9491e-04  0:00:27   61
  1940  3.1063e-03  3.7787e-03  2.6645e-02  2.3947e+01  3.0944e-03  1.2480e-03  5.9498e-04  0:00:33   60
  1941  3.1149e-03  3.7746e-03  2.6683e-02  2.4258e+01  3.1030e-03  1.2482e-03  5.9516e-04  0:00:26   59
  1942  3.1204e-03  3.7707e-03  2.6720e-02  2.4506e+01  3.1086e-03  1.2484e-03  5.9547e-04  0:00:21   58
  1943  3.1245e-03  3.7669e-03  2.6758e-02  2.4653e+01  3.1126e-03  1.2486e-03  5.9572e-04  0:00:28   57
  1944  3.1288e-03  3.7632e-03  2.6795e-02  2.4704e+01  3.1170e-03  1.2488e-03  5.9598e-04  0:00:22   56
  1945  3.1299e-03  3.7598e-03  2.6831e-02  2.4648e+01  3.1182e-03  1.2491e-03  5.9620e-04  0:00:28   55
  1946  3.1385e-03  3.7565e-03  2.6868e-02  2.4516e+01  3.1268e-03  1.2494e-03  5.9647e-04  0:00:22   54
  1947  3.1552e-03  3.7534e-03  2.6904e-02  2.4346e+01  3.1435e-03  1.2499e-03  5.9679e-04  0:00:28   53

  iter  continuity  x-velocity  y-velocity  z-velocity      energy           k       omega     time/iter
  1948  3.1671e-03  3.7504e-03  2.6940e-02  2.4181e+01  3.1555e-03  1.2503e-03  5.9715e-04  0:00:22   52
  1949  3.1777e-03  3.7474e-03  2.6975e-02  2.4014e+01  3.1662e-03  1.2508e-03  5.9746e-04  0:00:27   51
  1950  3.1949e-03  3.7445e-03  2.7011e-02  2.3833e+01  3.1834e-03  1.2513e-03  5.9762e-04  0:00:21   50
  1951  3.2182e-03  3.7416e-03  2.7047e-02  2.3623e+01  3.2068e-03  1.2516e-03  5.9783e-04  0:00:27   49
  1952  3.2294e-03  3.7389e-03  2.7082e-02  2.3400e+01  3.2180e-03  1.2519e-03  5.9760e-04  0:00:21   48
  1953  3.2417e-03  3.7363e-03  2.7117e-02  2.3147e+01  3.2303e-03  1.2522e-03  5.9764e-04  0:00:26   47
  1954  3.2593e-03  3.7339e-03  2.7152e-02  2.2863e+01  3.2480e-03  1.2526e-03  5.9789e-04  0:00:20   46
  1955  3.2760e-03  3.7317e-03  2.7187e-02  2.2635e+01  3.2647e-03  1.2531e-03  5.9816e-04  0:00:25   45
  1956  3.2921e-03  3.7296e-03  2.7221e-02  2.2468e+01  3.2809e-03  1.2535e-03  5.9838e-04  0:00:19   44
  1957  3.3205e-03  3.7277e-03  2.7255e-02  2.2421e+01  3.3092e-03  1.2539e-03  5.9875e-04  0:00:24   43
  1958  3.3433e-03  3.7260e-03  2.7288e-02  2.2498e+01  3.3321e-03  1.2544e-03  5.9911e-04  0:00:19   42

  iter  continuity  x-velocity  y-velocity  z-velocity      energy           k       omega     time/iter
  1959  3.3651e-03  3.7246e-03  2.7321e-02  2.2579e+01  3.3539e-03  1.2548e-03  5.9951e-04  0:00:23   41
  1960  3.3858e-03  3.7234e-03  2.7353e-02  2.2624e+01  3.3746e-03  1.2551e-03  5.9982e-04  0:00:18   40
  1961  3.4093e-03  3.7225e-03  2.7385e-02  2.2681e+01  3.3981e-03  1.2554e-03  6.0028e-04  0:00:22   39
  1962  3.4384e-03  3.7219e-03  2.7416e-02  2.2790e+01  3.4272e-03  1.2556e-03  6.0078e-04  0:00:17   38
  1963  3.4684e-03  3.7216e-03  2.7446e-02  2.2873e+01  3.4572e-03  1.2559e-03  6.0124e-04  0:00:21   37
  1964  3.4930e-03  3.7215e-03  2.7475e-02  2.2928e+01  3.4817e-03  1.2561e-03  6.0158e-04  0:00:16   36
  1965  3.5121e-03  3.7217e-03  2.7503e-02  2.2972e+01  3.5008e-03  1.2563e-03  6.0189e-04  0:00:19   35
  1966  3.5245e-03  3.7222e-03  2.7531e-02  2.3029e+01  3.5133e-03  1.2564e-03  6.0227e-04  0:00:15   34
  1967  3.5405e-03  3.7230e-03  2.7557e-02  2.3108e+01  3.5292e-03  1.2566e-03  6.0273e-04  0:00:18   33
  1968  3.5466e-03  3.7241e-03  2.7582e-02  2.3204e+01  3.5354e-03  1.2566e-03  6.0309e-04  0:00:14   32
  1969  3.5500e-03  3.7254e-03  2.7606e-02  2.3280e+01  3.5388e-03  1.2567e-03  6.0338e-04  0:00:17   31

  iter  continuity  x-velocity  y-velocity  z-velocity      energy           k       omega     time/iter
  1970  3.5530e-03  3.7270e-03  2.7630e-02  2.3306e+01  3.5419e-03  1.2569e-03  6.0372e-04  0:00:13   30
  1971  3.5527e-03  3.7288e-03  2.7652e-02  2.3272e+01  3.5415e-03  1.2571e-03  6.0380e-04  0:00:16   29
  1972  3.5457e-03  3.7309e-03  2.7673e-02  2.3237e+01  3.5346e-03  1.2574e-03  6.0379e-04  0:00:12   28
  1973  3.5435e-03  3.7332e-03  2.7692e-02  2.3211e+01  3.5323e-03  1.2577e-03  6.0379e-04  0:00:15   27
  1974  3.5443e-03  3.7356e-03  2.7711e-02  2.3135e+01  3.5332e-03  1.2580e-03  6.0379e-04  0:00:12   26
  1975  3.5379e-03  3.7383e-03  2.7729e-02  2.2950e+01  3.5268e-03  1.2583e-03  6.0383e-04  0:00:14   25
  1976  3.5283e-03  3.7413e-03  2.7745e-02  2.2656e+01  3.5171e-03  1.2585e-03  6.0389e-04  0:00:11   24
  1977  3.5182e-03  3.7444e-03  2.7760e-02  2.2337e+01  3.5071e-03  1.2587e-03  6.0412e-04  0:00:13   23
  1978  3.5092e-03  3.7476e-03  2.7774e-02  2.2031e+01  3.4981e-03  1.2590e-03  6.0431e-04  0:00:10   22
  1979  3.4935e-03  3.7509e-03  2.7787e-02  2.1725e+01  3.4825e-03  1.2592e-03  6.0457e-04  0:00:12   21
  1980  3.4696e-03  3.7544e-03  2.7799e-02  2.1442e+01  3.4586e-03  1.2595e-03  6.0474e-04  0:00:09   20

  iter  continuity  x-velocity  y-velocity  z-velocity      energy           k       omega     time/iter
  1981  3.4447e-03  3.7579e-03  2.7810e-02  2.1233e+01  3.4337e-03  1.2596e-03  6.0509e-04  0:00:11   19
  1982  3.4179e-03  3.7615e-03  2.7821e-02  2.1128e+01  3.4070e-03  1.2598e-03  6.0540e-04  0:00:08   18
  1983  3.3853e-03  3.7651e-03  2.7830e-02  2.1095e+01  3.3744e-03  1.2600e-03  6.0567e-04  0:00:09   17
  1984  3.3532e-03  3.7687e-03  2.7839e-02  2.1105e+01  3.3423e-03  1.2602e-03  6.0581e-04  0:00:07   16
  1985  3.3231e-03  3.7724e-03  2.7847e-02  2.1141e+01  3.3123e-03  1.2605e-03  6.0608e-04  0:00:08   15
  1986  3.2946e-03  3.7759e-03  2.7854e-02  2.1217e+01  3.2838e-03  1.2607e-03  6.0646e-04  0:00:06   14
  1987  3.2683e-03  3.7795e-03  2.7861e-02  2.1330e+01  3.2576e-03  1.2608e-03  6.0700e-04  0:00:07   13
  1988  3.2481e-03  3.7830e-03  2.7867e-02  2.1446e+01  3.2373e-03  1.2608e-03  6.0701e-04  0:00:05   12
  1989  3.2326e-03  3.7864e-03  2.7872e-02  2.1494e+01  3.2218e-03  1.2607e-03  6.0716e-04  0:00:06   11
  1990  3.2152e-03  3.7898e-03  2.7877e-02  2.1459e+01  3.2044e-03  1.2607e-03  6.0711e-04  0:00:04   10
  1991  3.1998e-03  3.7932e-03  2.7881e-02  2.1384e+01  3.1890e-03  1.2607e-03  6.0752e-04  0:00:05    9

  iter  continuity  x-velocity  y-velocity  z-velocity      energy           k       omega     time/iter
  1992  3.1903e-03  3.7964e-03  2.7885e-02  2.1304e+01  3.1795e-03  1.2607e-03  6.0808e-04  0:00:04    8
  1993  3.1765e-03  3.7996e-03  2.7888e-02  2.1235e+01  3.1656e-03  1.2605e-03  6.0866e-04  0:00:04    7
  1994  3.1610e-03  3.8027e-03  2.7891e-02  2.1130e+01  3.1501e-03  1.2603e-03  6.0901e-04  0:00:03    6
  1995  3.1456e-03  3.8058e-03  2.7894e-02  2.1015e+01  3.1348e-03  1.2600e-03  6.0890e-04  0:00:03    5
  1996  3.1313e-03  3.8089e-03  2.7896e-02  2.0908e+01  3.1204e-03  1.2597e-03  6.0872e-04  0:00:02    4
  1997  3.1126e-03  3.8118e-03  2.7898e-02  2.0771e+01  3.1017e-03  1.2593e-03  6.0882e-04  0:00:02    3
  1998  3.0903e-03  3.8150e-03  2.7899e-02  2.0714e+01  3.0794e-03  1.2588e-03  6.0862e-04  0:00:01    2
  1999  3.0733e-03  3.8182e-03  2.7900e-02  2.0706e+01  3.0624e-03  1.2583e-03  6.0870e-04  0:00:01    1
  2000  3.0551e-03  3.8215e-03  2.7900e-02  2.0761e+01  3.0442e-03  1.2580e-03  6.0882e-04  0:00:00    0

> 
adjoint/                parallel/               server/
define/                 parametric-study/       solve/
display/                plot/                   surface/
exit                    preferences/            turbo-workflow/
file/                   print-license-usage     views/
mesh/                   report/

> /file/write-case-data project1
Fast-loading "C:\PROGRA~1\ANSYSI~1\v231\fluent\fluent23.1.0\\addons\afd\lib\hdfio.bin"
Done.

Writing to Engs-30669:"C:\Users\kebl7595\Desktop\CFD\Runs\Flap\Re 3e5\Different Flap\Comically Large, AR = 1\project1.cas.h5" in NODE0 mode and compression level 1 ...
       55572 cells,     1 zone  ...
      186548 faces,     7 zones ...
       75840 nodes,     1 zone  ...
  Done.
Done.

Writing to Engs-30669:"C:\Users\kebl7595\Desktop\CFD\Runs\Flap\Re 3e5\Different Flap\Comically Large, AR = 1\project1.dat.h5" in NODE0 mode and compression level 1 ...
  Writing results.
Done.

> /file/export/ascii "./surface.dat" wing () no pressure mach-number quit no

Writing "./surface.dat"...

Writing information to ascii file ...
Done.


> /report/forces/wall-forces y -0.342020 -0.939693 0 y "Lift"

> /report/forces/wall-forces y 0.939693 -0.342020 0 y "Drag"

> /exit

Posting ANSYS Product Improvement Program performance data 
Done.
Auto-Transcript Stop Time:  12:50:07, 22 May 2024 GMT Daylight Time 
Total Transcript Time: 11 Minute 39 Second.
