Auto-Transcript Start Time:  10:26:37, 20 May 2024 GMT Daylight Time 
Current Directory: "C:\Users\kebl7595\Desktop\CFD\fluent\fluent"

              Welcome to ANSYS Fluent 2023 R1

              Copyright 1987-2023 ANSYS, Inc. All Rights Reserved.
              Unauthorized use, distribution or duplication is prohibited.
              This product is subject to U.S. laws governing export and re-export.
              For full Legal Notice, see documentation.

Build Time: Nov 28 2022 09:52:02 EST  Build Id: 10208  
 
Connected License Server List:	1055@ansyslic.eng.ox.ac.uk

*********************************************
Info: Your license enables 4-way parallel execution.
For faster simulations, please start the application with the appropriate parallel options.
*********************************************


     --------------------------------------------------------------
     This is an academic version of ANSYS FLUENT. Usage of this product
     license is limited to the terms and conditions specified in your ANSYS
     license form, additional terms section.
     --------------------------------------------------------------
Host spawning Node 0 on machine "Engs-30669" (win64).

------------------------------------------------------------------------------------
ID    Hostname    Core  O.S.         PID    Vendor                                 
------------------------------------------------------------------------------------
n0    Engs-30669  1/32  Windows-x64  44480  13th Gen Intel(R) Core(TM) i9-13900    
host  Engs-30669        Windows-x64  44852  13th Gen Intel(R) Core(TM) i9-13900    

MPI Option Selected: intel
------------------------------------------------------------------------------------

Cleanup script file is C:\\Users\\kebl7595\\Desktop\\CFD\\fluent\\fluent\\cleanup-fluent-Engs-30669-44852.bat
QA Service Message :
QA Services Agreement Enabled. This application is included in the scope of an ANSYS QA Services Agreement.Fast-loading "C:\PROGRA~1\ANSYSI~1\v231\fluent\fluent23.1.0\\addons\afd\lib\hdfio.bin"
Done.
Note: Rank = 0: Process affinity not being set (6).

Reading from Engs-30669:"C:/Users/kebl7595/Desktop/CFD/fluent/fluent/project1.cas.h5" in NODE0 mode ...
  Reading mesh ...
       12996 cells,     1 cell zone  ...
          12996 hexahedral cells,  zone id: 1
       43722 faces,     8 face zones ...
           4332 quadrilateral symmetry faces,  zone id: 2
            228 quadrilateral pressure-far-field faces,  zone id: 10
           4332 quadrilateral symmetry faces,  zone id: 9
            342 quadrilateral pressure-far-field faces,  zone id: 8
            228 quadrilateral wall faces,  zone id: 7
          33972 quadrilateral interior faces,  zone id: 3
            282 quadrilateral interior faces,  zone id: 4
              6 quadrilateral wall faces,  zone id: 5
       17864 nodes,     1 node zone  ...
  Done.


Warning: this is a double-precision solver.

Building...
     mesh
     materials,
     interface,
     domains,
	mixture
     zones,
	te
	interface-default_subface
	default_interior-1
	wing
	far1
	far2
	sym1
	sym2
	default
     parallel,

Note: 3d, density-based implicit, inviscid case read into
      3d, double precision, density-based implicit, inviscid solver.



Done.

Reading from Engs-30669:"C:/Users/kebl7595/Desktop/CFD/fluent/fluent/project1.dat.h5" in NODE0 mode ...


  Reading results.
Parallel variables...
Done.

> (cx-gui-do cx-activate-item "Information*OK")
(cx-gui-do cx-activate-item "QA Service Message*PanelButtons*PushButton1(OK)")
(cx-gui-do cx-set-list-tree-selections "NavigationPane*Frame2*Table1*List_Tree2" (list "Results|Graphics"))
(cx-gui-do cx-set-list-tree-selections "NavigationPane*Frame2*Table1*List_Tree2" (list "Results|Graphics"))
(cx-gui-do cx-activate-item "NavigationPane*Frame2*Table1*List_Tree2")
(cx-gui-do cx-set-list-tree-selections "NavigationPane*Frame2*Table1*List_Tree2" (list "Results|Graphics"))
(cx-gui-do cx-set-list-tree-selections "NavigationPane*Frame2*Table1*List_Tree2" (list "Results|Graphics|Contours"))
(cx-gui-do cx-set-list-tree-selections "NavigationPane*Frame2*Table1*List_Tree2" (list "Results|Graphics|Contours"))
(cx-gui-do cx-activate-item "NavigationPane*Frame2*Table1*List_Tree2")
(cx-gui-do cx-set-list-tree-selections "NavigationPane*Frame2*Table1*List_Tree2" (list "Results|Graphics|Contours"))
(cx-gui-do cx-activate-item "Contours*PanelButtons*PushButton1(OK)")
Contour object is not valid to display, saving object.
(cx-gui-do cx-set-toggle-button2 "Contours*Table1*Frame1*ToggleBox1(Options)*CheckButton9(Draw Mesh)" #t)
(cx-gui-do cx-activate-item "Contours*Table1*Frame1*ToggleBox1(Options)*CheckButton9(Draw Mesh)")
(cx-gui-do cx-activate-item "Mesh Display*PanelButtons*PushButton1(OK)")
(cx-use-window-id 51)
(cxg-clear-all-selections (cx-active-window))
(cxg-add-surfaces-to-selection '(sym2 sym1) (cx-active-window))
(cx-use-window-id 51)
(cx-use-window-id 51)
(cx-use-window-id 51)
(cxg-clear-all-selections (cx-active-window))
(cxg-add-surfaces-to-selection '(sym2 sym1) (cx-active-window))
(cx-use-window-id 51)
(cxg-clear-all-selections (cx-active-window))
(cxg-add-surfaces-to-selection '(sym2) (cx-active-window))
(cx-gui-do cx-activate-item "Mesh Display*PanelButtons*PushButton2(Cancel)")
(cx-gui-do cx-activate-item "Quick Edit*Table1*PushButton4(icon_close)")
(cx-gui-do cx-set-list-selections "Contours*Table1*Frame3*Frame2*List2(Surfaces)" '( 5))
(cx-gui-do cx-activate-item "Contours*Table1*Frame3*Frame2*List2(Surfaces)")
(cx-gui-do cx-set-list-selections "Contours*Table1*Frame3*Frame2*List2(Surfaces)" '( 3 5))
(cx-gui-do cx-activate-item "Contours*Table1*Frame3*Frame2*List2(Surfaces)")
(cx-gui-do cx-set-list-selections "Contours*Table1*Frame3*Frame2*List2(Surfaces)" '( 5))
(cx-gui-do cx-activate-item "Contours*Table1*Frame3*Frame2*List2(Surfaces)")
(cx-gui-do cx-set-list-selections "Contours*Table1*Frame3*Frame2*List2(Surfaces)" '( 3 5))
(cx-gui-do cx-activate-item "Contours*Table1*Frame3*Frame2*List2(Surfaces)")
(cx-gui-do cx-set-list-selections "Contours*Table1*Frame3*Frame2*List2(Surfaces)" '( 3))
(cx-gui-do cx-activate-item "Contours*Table1*Frame3*Frame2*List2(Surfaces)")
(cx-gui-do cx-activate-item "Contours*PanelButtons*PushButton1(OK)")
(cxg-clear-all-selections (cx-active-window))
(cxg-add-surfaces-to-selection '() (cx-active-window))
(cx-gui-do cx-set-toggle-button2 "Contours*Table1*Frame1*ToggleBox1(Options)*CheckButton9(Draw Mesh)" #f)
(cx-gui-do cx-activate-item "Contours*Table1*Frame1*ToggleBox1(Options)*CheckButton9(Draw Mesh)")
(cx-gui-do cx-activate-item "Contours*PanelButtons*PushButton1(OK)")
(cx-gui-do cx-activate-item "Contours*PanelButtons*PushButton2(Cancel)")
(cx-use-window-id 51)
(cx-set-camera-relative '(1.40824 -0.485873 -0.243522) '(0 0 0) '(-0.0372185 -0.00797892 0.120505) 0 0)
(cx-use-window-id 51)
(cx-set-camera-relative '(-4.63723 -1.2496 0.89716) '(0 0 0) '(0.0197485 -0.00367123 0.0307388) 0 0)
(cx-gui-do cx-activate-item "ToolBar*Pointer*translate")
(cx-use-window-id 51)
(dolly-camera 0.0845321 0.104922 0)
(cx-use-window-id 51)
(dolly-camera 0.16685 0.0046567 0)
(cx-use-window-id 51)
(dolly-camera 0.0977427 0.282022 0)
(cx-use-window-id 51)
(dolly-camera 0.0941762 -0.109044 0)
(cx-gui-do cx-set-integer-entry "Ribbon*Frame1*Frame5(Solution)*Table1*Table3(Run Calculation)*Table6*IntegerEntry16(No  of Iterations)" 2000)
(cx-gui-do cx-activate-item "Ribbon*Frame1*Frame5(Solution)*Table1*Table3(Run Calculation)*Table6*IntegerEntry16(No  of Iterations)")
(cx-gui-do cx-activate-item "Ribbon*Frame1*Frame5(Solution)*Table1*Table3(Run Calculation)*PushButton7(Calculate)")


  iter  continuity  x-velocity  y-velocity  z-velocity      energy     time/iter
    10  7.0568e-02  3.7763e-02  2.7873e-02  6.7186e-01  7.0737e-02  0:00:00 2000
    11  6.4673e-02  3.5087e-02  2.3010e-02  6.2920e-01  6.4833e-02  0:00:00 1999
    12  6.0652e-02  3.4173e-02  1.9491e-02  5.9502e-01  6.0804e-02  0:00:00 1998
    13  5.7946e-02  3.4255e-02  1.6993e-02  5.6620e-01  5.8090e-02  0:00:00 1997
    14  5.6503e-02  3.5128e-02  1.5204e-02  5.4661e-01  5.6641e-02  0:00:00 1996
    15  5.6006e-02  3.6489e-02  1.4082e-02  5.2907e-01  5.6138e-02  0:00:00 1995
    16  5.6261e-02  3.8186e-02  1.3484e-02  5.2207e-01  5.6387e-02  0:00:00 1994
    17  5.7077e-02  4.0036e-02  1.3241e-02  5.1784e-01  5.7198e-02  0:00:00 1993
    18  5.8294e-02  4.1882e-02  1.3300e-02  5.1323e-01  5.8408e-02  0:00:00 1992
    19  5.9711e-02  4.3587e-02  1.3654e-02  5.0789e-01  5.9817e-02  0:00:00 1991
    20  6.1137e-02  4.5048e-02  1.4254e-02  5.0281e-01  6.1235e-02  0:00:00 1990

  iter  continuity  x-velocity  y-velocity  z-velocity      energy     time/iter
    21  6.2402e-02  4.6144e-02  1.5037e-02  4.9734e-01  6.2490e-02  0:00:00 1989
    22  6.3362e-02  4.6805e-02  1.5932e-02  4.9186e-01  6.3441e-02  0:00:00 1988
    23  6.3901e-02  4.6983e-02  1.6868e-02  4.8617e-01  6.3969e-02  0:00:00 1987
    24  6.3927e-02  4.6654e-02  1.7780e-02  4.7869e-01  6.3984e-02  0:00:00 1986
    25  6.3376e-02  4.5814e-02  1.8610e-02  4.6816e-01  6.3422e-02  0:00:00 1985
    26  6.2208e-02  4.4455e-02  1.9313e-02  4.5337e-01  6.2244e-02  0:00:00 1984
    27  6.0405e-02  4.2584e-02  1.9848e-02  4.3163e-01  6.0431e-02  0:00:00 1983
    28  5.7970e-02  4.0251e-02  2.0192e-02  4.1018e-01  5.7987e-02  0:33:02 1982
    29  5.4908e-02  3.7441e-02  2.0345e-02  3.9077e-01  5.4918e-02  0:26:25 1981
    30  5.1254e-02  3.4213e-02  2.0281e-02  3.6370e-01  5.1258e-02  0:21:07 1980
    31  4.7056e-02  3.0613e-02  1.9993e-02  3.3525e-01  4.7055e-02  0:16:53 1979

  iter  continuity  x-velocity  y-velocity  z-velocity      energy     time/iter
    32  4.2377e-02  2.6725e-02  1.9481e-02  3.0982e-01  4.2374e-02  0:13:30 1978
    33  3.7299e-02  2.2677e-02  1.8760e-02  2.9061e-01  3.7294e-02  0:10:48 1977
    34  3.1919e-02  1.8663e-02  1.7845e-02  2.8222e-01  3.1913e-02  0:08:38 1976
    35  2.6350e-02  1.4973e-02  1.6766e-02  2.8875e-01  2.6345e-02  0:06:54 1975
    36  2.0750e-02  1.2199e-02  1.5552e-02  3.1097e-01  2.0744e-02  0:05:31 1974
    37  1.5319e-02  1.1128e-02  1.4252e-02  3.4545e-01  1.5311e-02  0:04:25 1973
    38  1.0518e-02  1.2177e-02  1.2903e-02  3.8932e-01  1.0503e-02  0:03:32 1972
    39  7.6044e-03  1.4777e-02  1.1537e-02  4.3670e-01  7.5720e-03  0:02:49 1971
    40  8.4496e-03  1.8121e-02  1.0204e-02  4.8666e-01  8.4061e-03  0:02:15 1970
    41  1.1959e-02  2.1647e-02  8.9688e-03  5.3432e-01  1.1916e-02  0:01:48 1969
    42  1.6175e-02  2.5058e-02  7.8930e-03  5.7587e-01  1.6133e-02  0:01:27 1968

  iter  continuity  x-velocity  y-velocity  z-velocity      energy     time/iter
    43  2.0391e-02  2.8216e-02  7.0485e-03  6.0916e-01  2.0350e-02  0:01:09 1967
    44  2.4376e-02  3.1039e-02  6.4989e-03  6.3242e-01  2.4335e-02  0:00:55 1966
    45  2.7939e-02  3.3445e-02  6.2671e-03  6.4493e-01  2.7900e-02  0:00:44 1965
    46  3.0990e-02  3.5396e-02  6.3547e-03  6.4539e-01  3.0953e-02  0:00:35 1964
    47  3.3505e-02  3.6898e-02  6.6633e-03  6.1253e-01  3.3469e-02  0:00:28 1963
    48  3.5489e-02  3.7937e-02  7.1240e-03  6.0228e-01  3.5456e-02  0:00:23 1962
    49  3.6953e-02  3.8524e-02  7.6427e-03  5.6389e-01  3.6924e-02  0:06:50 1961
    50  3.7917e-02  3.8666e-02  8.1507e-03  5.1805e-01  3.7891e-02  0:05:28 1960
    51  3.8405e-02  3.8406e-02  8.5968e-03  4.6575e-01  3.8382e-02  0:04:22 1959
    52  3.8446e-02  3.7771e-02  8.9618e-03  4.0921e-01  3.8427e-02  0:03:30 1958
    53  3.8073e-02  3.6801e-02  9.2371e-03  3.5322e-01  3.8058e-02  0:02:48 1957

  iter  continuity  x-velocity  y-velocity  z-velocity      energy     time/iter
    54  3.7322e-02  3.5540e-02  9.4233e-03  3.0293e-01  3.7310e-02  0:02:14 1956
    55  3.6228e-02  3.4026e-02  9.5194e-03  2.6475e-01  3.6220e-02  0:01:47 1955
    56  3.4831e-02  3.2297e-02  9.5260e-03  2.4599e-01  3.4825e-02  0:01:26 1954
    57  3.3168e-02  3.0400e-02  9.4474e-03  2.5311e-01  3.3164e-02  0:01:09 1953
    58  3.1275e-02  2.8326e-02  9.2869e-03  2.8447e-01  3.1273e-02  0:00:55 1952
    59  2.9187e-02  2.6138e-02  9.0589e-03  3.3112e-01  2.9187e-02  0:00:44 1951
    60  2.6935e-02  2.3857e-02  8.7707e-03  3.8239e-01  2.6937e-02  0:00:35 1950
    61  2.4556e-02  2.1525e-02  8.4240e-03  4.3238e-01  2.4558e-02  0:00:28 1949
    62  2.2079e-02  1.9216e-02  8.0218e-03  4.7733e-01  2.2082e-02  0:00:22 1948
    63  1.9529e-02  1.6945e-02  7.5805e-03  5.1332e-01  1.9532e-02  0:00:18 1947
    64  1.6940e-02  1.4759e-02  7.1060e-03  5.3792e-01  1.6942e-02  0:00:14 1946

  iter  continuity  x-velocity  y-velocity  z-velocity      energy     time/iter
    65  1.4339e-02  1.2721e-02  6.6048e-03  5.5140e-01  1.4340e-02  0:00:11 1945
    66  1.1760e-02  1.0915e-02  6.0831e-03  5.5339e-01  1.1761e-02  0:00:09 1944
    67  9.2585e-03  9.4408e-03  5.5487e-03  5.4398e-01  9.2578e-03  0:00:07 1943
    68  6.8779e-03  8.4313e-03  5.0150e-03  5.2356e-01  6.8755e-03  0:00:06 1942
    69  4.8027e-03  8.0121e-03  4.4910e-03  4.9951e-01  4.7980e-03  0:00:05 1941
    70  3.5449e-03  8.2326e-03  3.9886e-03  4.6620e-01  3.5383e-03  0:06:32 1940
    71  3.8745e-03  8.9800e-03  3.5276e-03  4.2282e-01  3.8695e-03  0:05:13 1939
    72  5.4004e-03  1.0070e-02  3.1361e-03  3.7501e-01  5.3983e-03  0:04:10 1938
    73  7.3104e-03  1.1339e-02  2.8495e-03  3.2841e-01  7.3103e-03  0:03:20 1937
    74  9.2818e-03  1.2680e-02  2.7019e-03  2.8926e-01  9.2831e-03  0:02:40 1936
    75  1.1198e-02  1.4006e-02  2.7102e-03  2.6676e-01  1.1200e-02  0:02:08 1935

  iter  continuity  x-velocity  y-velocity  z-velocity      energy     time/iter
    76  1.3013e-02  1.5275e-02  2.8664e-03  2.7111e-01  1.3016e-02  0:01:42 1934
    77  1.4702e-02  1.6453e-02  3.1376e-03  3.0341e-01  1.4705e-02  0:01:22 1933
    78  1.6247e-02  1.7508e-02  3.4845e-03  3.5611e-01  1.6250e-02  0:01:05 1932
    79  1.7631e-02  1.8419e-02  3.8736e-03  4.2038e-01  1.7634e-02  0:00:52 1931
    80  1.8840e-02  1.9171e-02  4.2786e-03  4.8744e-01  1.8843e-02  0:00:42 1930
    81  1.9855e-02  1.9747e-02  4.6831e-03  5.5622e-01  1.9858e-02  0:00:33 1929
    82  2.0665e-02  2.0137e-02  5.0709e-03  6.1802e-01  2.0667e-02  0:00:27 1928
    83  2.1261e-02  2.0338e-02  5.4295e-03  6.7008e-01  2.1262e-02  0:00:21 1927
    84  2.1637e-02  2.0346e-02  5.7485e-03  7.1108e-01  2.1638e-02  0:00:17 1926
    85  2.1791e-02  2.0158e-02  6.0214e-03  7.4108e-01  2.1791e-02  0:00:14 1925
    86  2.1721e-02  1.9779e-02  6.2430e-03  7.5988e-01  2.1720e-02  0:00:11 1924

  iter  continuity  x-velocity  y-velocity  z-velocity      energy     time/iter
    87  2.1428e-02  1.9219e-02  6.4083e-03  7.6587e-01  2.1427e-02  0:00:09 1923
    88  2.0917e-02  1.8492e-02  6.5119e-03  7.4249e-01  2.0914e-02  0:00:07 1922
    89  2.0192e-02  1.7609e-02  6.5537e-03  7.3588e-01  2.0189e-02  0:00:06 1921
    90  1.9263e-02  1.6589e-02  6.5331e-03  7.0220e-01  1.9259e-02  0:00:04 1920
    91  1.8137e-02  1.5445e-02  6.4548e-03  6.5429e-01  1.8134e-02  0:06:27 1919
    92  1.6827e-02  1.4218e-02  6.3197e-03  5.9787e-01  1.6823e-02  0:05:10 1918
    93  1.5348e-02  1.2937e-02  6.1308e-03  5.3356e-01  1.5344e-02  0:04:08 1917
    94  1.3721e-02  1.1652e-02  5.8886e-03  4.6497e-01  1.3718e-02  0:03:18 1916
    95  1.1973e-02  1.0433e-02  5.5972e-03  3.9382e-01  1.1970e-02  0:02:38 1915
    96  1.0136e-02  9.3619e-03  5.2621e-03  3.2821e-01  1.0133e-02  0:02:07 1914
    97  8.2515e-03  8.5304e-03  4.8903e-03  2.7580e-01  8.2489e-03  0:01:41 1913

  iter  continuity  x-velocity  y-velocity  z-velocity      energy     time/iter
    98  6.3800e-03  8.0361e-03  4.4906e-03  2.5227e-01  6.3776e-03  0:01:21 1912
    99  4.6335e-03  7.9384e-03  4.0737e-03  2.7204e-01  4.6308e-03  0:01:05 1911
   100  3.2936e-03  8.2279e-03  3.6529e-03  3.2463e-01  3.2896e-03  0:00:52 1910
   101  2.9767e-03  8.8256e-03  3.2428e-03  3.9390e-01  2.9709e-03  0:00:41 1909
   102  3.8715e-03  9.6208e-03  2.8622e-03  4.7219e-01  3.8652e-03  0:00:33 1908
   103  5.3198e-03  1.0509e-02  2.5369e-03  5.5184e-01  5.3135e-03  0:00:26 1907
   104  6.8866e-03  1.1415e-02  2.2941e-03  6.2767e-01  6.8801e-03  0:00:21 1906
   105  8.4272e-03  1.2279e-02  2.1592e-03  6.9441e-01  8.4206e-03  0:00:17 1905
   106  9.8736e-03  1.3057e-02  2.1444e-03  7.5203e-01  9.8670e-03  0:00:14 1904
   107  1.1187e-02  1.3721e-02  2.2388e-03  7.9889e-01  1.1180e-02  0:00:11 1903
   108  1.2340e-02  1.4255e-02  2.4140e-03  8.3629e-01  1.2333e-02  0:00:09 1902

  iter  continuity  x-velocity  y-velocity  z-velocity      energy     time/iter
   109  1.3315e-02  1.4645e-02  2.6341e-03  8.6130e-01  1.3309e-02  0:00:07 1901
   110  1.4101e-02  1.4886e-02  2.8743e-03  8.7120e-01  1.4095e-02  0:00:06 1900
   111  1.4689e-02  1.4978e-02  3.1131e-03  8.6907e-01  1.4684e-02  0:00:04 1899
   112  1.5079e-02  1.4923e-02  3.3332e-03  8.3913e-01  1.5074e-02  0:06:23 1898
   113  1.5273e-02  1.4729e-02  3.5262e-03  8.0309e-01  1.5269e-02  0:05:06 1897
   114  1.5266e-02  1.4403e-02  3.6908e-03  7.9044e-01  1.5263e-02  0:04:05 1896
   115  1.5070e-02  1.3958e-02  3.8190e-03  7.5695e-01  1.5067e-02  0:03:16 1895
   116  1.4697e-02  1.3407e-02  3.9073e-03  7.1630e-01  1.4695e-02  0:02:37 1894
   117  1.4163e-02  1.2765e-02  3.9545e-03  6.6457e-01  1.4161e-02  0:02:05 1893
   118  1.3486e-02  1.2045e-02  3.9601e-03  6.0579e-01  1.3484e-02  0:01:40 1892
   119  1.2683e-02  1.1265e-02  3.9270e-03  5.4792e-01  1.2682e-02  0:01:20 1891

  iter  continuity  x-velocity  y-velocity  z-velocity      energy     time/iter
   120  1.1764e-02  1.0440e-02  3.8583e-03  4.9313e-01  1.1763e-02  0:01:04 1890
   121  1.0747e-02  9.5925e-03  3.7550e-03  4.3529e-01  1.0747e-02  0:00:51 1889
   122  9.6511e-03  8.7421e-03  3.6193e-03  3.8024e-01  9.6506e-03  0:00:41 1888
   123  8.4964e-03  7.9143e-03  3.4539e-03  3.3414e-01  8.4960e-03  0:00:33 1887
   124  7.3051e-03  7.1364e-03  3.2624e-03  3.0045e-01  7.3046e-03  0:00:26 1886
   125  6.1006e-03  6.4352e-03  3.0485e-03  2.7775e-01  6.1000e-03  0:00:21 1885
   126  4.9102e-03  5.8449e-03  2.8171e-03  2.6556e-01  4.9093e-03  0:00:17 1884
   127  3.7733e-03  5.4053e-03  2.5728e-03  2.6700e-01  3.7718e-03  0:00:13 1883
   128  2.7614e-03  5.1401e-03  2.3211e-03  2.8384e-01  2.7590e-03  0:06:27 1882
   129  2.0353e-03  5.0587e-03  2.0691e-03  3.1039e-01  2.0317e-03  0:05:10 1881
   130  1.8939e-03  5.1446e-03  1.8248e-03  3.4189e-01  1.8898e-03  0:04:07 1880

  iter  continuity  x-velocity  y-velocity  z-velocity      energy     time/iter
   131  2.3645e-03  5.3606e-03  1.5987e-03  3.7760e-01  2.3611e-03  0:03:18 1879
   132  3.1178e-03  5.6652e-03  1.4045e-03  4.1778e-01  3.1152e-03  0:02:38 1878
   133  3.9371e-03  6.0194e-03  1.2584e-03  4.5545e-01  3.9351e-03  0:02:07 1877
   134  4.7369e-03  6.3906e-03  1.1759e-03  4.8821e-01  4.7352e-03  0:01:41 1876
   135  5.4806e-03  6.7537e-03  1.1652e-03  5.1611e-01  5.4792e-03  0:01:21 1875
   136  6.1501e-03  7.0912e-03  1.2202e-03  5.4230e-01  6.1488e-03  0:01:05 1874
   137  6.7348e-03  7.3898e-03  1.3241e-03  5.6652e-01  6.7337e-03  0:00:52 1873
   138  7.2286e-03  7.6397e-03  1.4569e-03  5.8464e-01  7.2276e-03  0:00:41 1872
   139  7.6271e-03  7.8339e-03  1.6008e-03  6.1890e-01  7.6261e-03  0:00:33 1871
   140  7.9296e-03  7.9699e-03  1.7449e-03  6.4235e-01  7.9287e-03  0:00:26 1870
   141  8.1375e-03  8.0480e-03  1.8809e-03  6.4481e-01  8.1365e-03  0:00:21 1869

  iter  continuity  x-velocity  y-velocity  z-velocity      energy     time/iter
   142  8.2524e-03  8.0684e-03  2.0034e-03  6.1680e-01  8.2514e-03  0:00:17 1868
   143  8.2767e-03  8.0318e-03  2.1089e-03  5.8243e-01  8.2757e-03  0:00:14 1867
   144  8.2138e-03  7.9415e-03  2.1948e-03  5.5994e-01  8.2128e-03  0:00:11 1866
   145  8.0679e-03  7.8003e-03  2.2597e-03  5.4390e-01  8.0670e-03  0:00:09 1865
   146  7.8443e-03  7.6151e-03  2.3026e-03  5.2268e-01  7.8434e-03  0:00:07 1864
   147  7.5487e-03  7.3922e-03  2.3232e-03  4.9519e-01  7.5478e-03  0:00:06 1863
   148  7.1874e-03  7.1383e-03  2.3213e-03  4.6573e-01  7.1866e-03  0:06:17 1862
   149  6.7676e-03  6.8618e-03  2.2974e-03  4.3624e-01  6.7668e-03  0:05:01 1861
   150  6.2964e-03  6.5711e-03  2.2527e-03  4.1078e-01  6.2957e-03  0:04:01 1860
   151  5.7793e-03  6.2676e-03  2.1882e-03  3.7693e-01  5.7788e-03  0:03:13 1859
   152  5.2272e-03  5.9747e-03  2.1052e-03  3.3736e-01  5.2267e-03  0:02:34 1858

  iter  continuity  x-velocity  y-velocity  z-velocity      energy     time/iter
   153  4.6483e-03  5.7010e-03  2.0057e-03  3.0565e-01  4.6479e-03  0:02:03 1857
   154  4.0513e-03  5.4565e-03  1.8922e-03  2.6785e-01  4.0510e-03  0:01:38 1856
   155  3.4458e-03  5.2506e-03  1.7670e-03  2.3893e-01  3.4457e-03  0:01:19 1855
   156  2.8437e-03  5.0943e-03  1.6325e-03  2.2381e-01  2.8437e-03  0:01:03 1854
   157  2.2609e-03  4.9906e-03  1.4914e-03  2.1324e-01  2.2609e-03  0:00:50 1853
   158  1.7253e-03  4.9419e-03  1.3471e-03  2.0902e-01  1.7252e-03  0:00:40 1852
   159  1.2947e-03  4.9468e-03  1.2030e-03  2.1548e-01  1.2944e-03  0:00:32 1851
   160  1.0841e-03  4.9994e-03  1.0635e-03  2.1154e-01  1.0834e-03  0:00:26 1850
   161  1.1882e-03  5.0928e-03  9.3414e-04  2.3775e-01  1.1870e-03  0:00:21 1849
   162  1.5172e-03  5.2168e-03  8.2163e-04  2.9384e-01  1.5158e-03  0:00:16 1848
   163  1.9352e-03  5.3600e-03  7.3420e-04  3.1230e-01  1.9337e-03  0:00:13 1847

  iter  continuity  x-velocity  y-velocity  z-velocity      energy     time/iter
   164  2.3721e-03  5.5121e-03  6.8066e-04  3.1124e-01  2.3705e-03  0:00:11 1846
   165  2.7980e-03  5.6653e-03  6.6647e-04  3.1279e-01  2.7964e-03  0:00:08 1845
   166  3.1983e-03  5.8116e-03  6.8944e-04  3.2304e-01  3.1966e-03  0:00:07 1844
   167  3.5635e-03  5.9430e-03  7.4103e-04  3.4181e-01  3.5618e-03  0:00:05 1843
   168  3.8896e-03  6.0536e-03  8.1111e-04  3.5951e-01  3.8879e-03  0:00:04 1842
   169  4.1741e-03  6.1395e-03  8.9002e-04  3.6905e-01  4.1724e-03  0:06:12 1841
   170  4.4144e-03  6.1983e-03  9.7127e-04  3.6745e-01  4.4128e-03  0:04:57 1840
   171  4.6086e-03  6.2268e-03  1.0494e-03  3.7800e-01  4.6070e-03  0:03:58 1839
   172  4.7555e-03  6.2240e-03  1.1218e-03  3.9034e-01  4.7539e-03  0:03:10 1838
   173  4.8546e-03  6.1914e-03  1.1867e-03  3.9503e-01  4.8531e-03  0:02:32 1837
   174  4.9059e-03  6.1264e-03  1.2420e-03  3.9404e-01  4.9045e-03  0:02:01 1836

  iter  continuity  x-velocity  y-velocity  z-velocity      energy     time/iter
   175  4.9096e-03  6.0319e-03  1.2867e-03  3.9435e-01  4.9083e-03  0:01:37 1835
   176  4.8666e-03  5.9079e-03  1.3202e-03  3.9694e-01  4.8653e-03  0:01:18 1834
   177  4.7780e-03  5.7594e-03  1.3421e-03  4.0193e-01  4.7768e-03  0:01:02 1833
   178  4.6454e-03  5.5897e-03  1.3522e-03  4.0721e-01  4.6443e-03  0:00:50 1832
   179  4.4707e-03  5.4022e-03  1.3504e-03  4.1350e-01  4.4697e-03  0:00:40 1831
   180  4.2561e-03  5.2027e-03  1.3372e-03  4.1955e-01  4.2552e-03  0:00:32 1830
   181  4.0043e-03  4.9932e-03  1.3129e-03  4.2273e-01  4.0035e-03  0:00:25 1829
   182  3.7183e-03  4.7811e-03  1.2780e-03  4.2151e-01  3.7175e-03  0:00:20 1828
   183  3.4013e-03  4.5682e-03  1.2334e-03  4.1332e-01  3.4006e-03  0:00:16 1827
   184  3.0594e-03  4.3768e-03  1.1795e-03  3.9840e-01  3.0588e-03  0:00:13 1826
   185  2.6967e-03  4.2088e-03  1.1174e-03  3.7944e-01  2.6961e-03  0:00:10 1825

  iter  continuity  x-velocity  y-velocity  z-velocity      energy     time/iter
   186  2.3182e-03  4.0714e-03  1.0484e-03  3.5959e-01  2.3177e-03  0:00:08 1824
   187  1.9344e-03  3.9728e-03  9.7349e-04  3.4786e-01  1.9340e-03  0:00:07 1823
   188  1.5581e-03  3.9172e-03  8.9501e-04  3.4245e-01  1.5578e-03  0:00:05 1822
   189  1.2105e-03  3.9023e-03  8.1500e-04  3.3719e-01  1.2102e-03  0:00:04 1821
   190  9.3552e-04  3.9259e-03  7.3591e-04  3.2797e-01  9.3544e-04  0:06:07 1820
   191  8.1365e-04  3.9811e-03  6.6096e-04  3.2343e-01  8.1378e-04  0:04:54 1819
   192  9.0126e-04  4.0644e-03  5.9441e-04  3.3694e-01  9.0156e-04  0:03:55 1818
   193  1.1412e-03  4.1715e-03  5.4114e-04  3.7081e-01  1.1415e-03  0:03:08 1817
   194  1.4447e-03  4.2901e-03  5.0531e-04  3.9424e-01  1.4450e-03  0:02:30 1816
   195  1.7637e-03  4.4116e-03  4.9123e-04  4.2236e-01  1.7640e-03  0:02:00 1815
   196  2.0755e-03  4.5268e-03  4.9993e-04  4.4415e-01  2.0758e-03  0:01:36 1814

  iter  continuity  x-velocity  y-velocity  z-velocity      energy     time/iter
   197  2.3684e-03  4.6343e-03  5.2799e-04  4.5926e-01  2.3686e-03  0:01:17 1813
   198  2.6348e-03  4.7290e-03  5.7046e-04  4.7480e-01  2.6349e-03  0:01:01 1812
   199  2.8695e-03  4.8057e-03  6.2181e-04  5.0653e-01  2.8695e-03  0:00:49 1811
   200  3.0686e-03  4.8602e-03  6.7670e-04  5.4193e-01  3.0686e-03  0:00:39 1810
   201  3.2296e-03  4.8919e-03  7.3131e-04  5.7118e-01  3.2296e-03  0:00:31 1809
   202  3.3505e-03  4.8992e-03  7.8317e-04  5.9204e-01  3.3504e-03  0:00:25 1808
   203  3.4302e-03  4.8828e-03  8.3001e-04  6.0200e-01  3.4300e-03  0:00:20 1807
   204  3.4683e-03  4.8429e-03  8.7035e-04  6.1377e-01  3.4681e-03  0:00:16 1806
   205  3.4652e-03  4.7814e-03  9.0319e-04  6.2718e-01  3.4649e-03  0:00:13 1805
   206  3.4216e-03  4.7001e-03  9.2771e-04  6.3622e-01  3.4213e-03  0:00:10 1804
   207  3.3390e-03  4.6014e-03  9.4351e-04  6.3362e-01  3.3386e-03  0:00:08 1803

  iter  continuity  x-velocity  y-velocity  z-velocity      energy     time/iter
   208  3.2194e-03  4.4884e-03  9.5050e-04  6.4066e-01  3.2190e-03  0:00:07 1802
   209  3.0652e-03  4.3652e-03  9.4849e-04  6.7645e-01  3.0648e-03  0:00:05 1801
   210  2.8794e-03  4.2349e-03  9.3739e-04  7.0873e-01  2.8789e-03  0:06:04 1800
   211  2.6656e-03  4.1038e-03  9.1763e-04  7.4462e-01  2.6650e-03  0:04:51 1799
   212  2.4277e-03  3.9770e-03  8.8998e-04  7.7279e-01  2.4271e-03  0:03:53 1798
   213  2.1703e-03  3.8585e-03  8.5496e-04  7.8639e-01  2.1696e-03  0:03:06 1797
   214  1.8982e-03  3.7520e-03  8.1333e-04  7.9132e-01  1.8974e-03  0:02:29 1796
   215  1.6176e-03  3.6610e-03  7.6601e-04  8.2110e-01  1.6167e-03  0:01:59 1795
   216  1.3369e-03  3.5891e-03  7.1430e-04  8.8251e-01  1.3357e-03  0:01:35 1794
   217  1.0642e-03  3.5270e-03  6.5904e-04  9.3846e-01  1.0626e-03  0:01:16 1793
   218  8.2177e-04  3.4817e-03  6.0259e-04  9.8039e-01  8.1958e-04  0:01:01 1792

  iter  continuity  x-velocity  y-velocity  z-velocity      energy     time/iter
   219  6.5444e-04  3.4644e-03  5.4496e-04  9.9969e-01  6.5150e-04  0:00:49 1791
   220  6.1789e-04  3.4663e-03  4.9059e-04  9.9477e-01  6.1456e-04  0:00:39 1790
   221  7.2124e-04  3.4809e-03  4.4193e-04  9.7361e-01  7.1818e-04  0:00:31 1789
   222  9.0871e-04  3.5106e-03  4.0159e-04  9.5854e-01  9.0611e-04  0:00:25 1788
   223  1.1268e-03  3.5502e-03  3.7241e-04  9.4785e-01  1.1246e-03  0:00:20 1787
   224  1.3482e-03  3.5920e-03  3.5820e-04  9.4042e-01  1.3463e-03  0:00:16 1786
   225  1.5597e-03  3.6309e-03  3.6050e-04  9.3749e-01  1.5579e-03  0:00:13 1785
   226  1.7546e-03  3.6667e-03  3.7745e-04  9.3273e-01  1.7530e-03  0:00:10 1784
   227  1.9286e-03  3.6978e-03  4.0307e-04  9.4102e-01  1.9272e-03  0:00:08 1783
   228  2.0786e-03  3.7219e-03  4.3459e-04  9.5878e-01  2.0772e-03  0:00:06 1782
   229  2.2025e-03  3.7367e-03  4.7038e-04  9.8425e-01  2.2012e-03  0:00:05 1781

  iter  continuity  x-velocity  y-velocity  z-velocity      energy     time/iter
   230  2.2988e-03  3.7418e-03  5.0670e-04  1.0220e+00  2.2976e-03  0:06:00 1780
   231  2.3666e-03  3.7371e-03  5.4069e-04  1.0583e+00  2.3654e-03  0:04:48 1779
   232  2.4054e-03  3.7232e-03  5.7199e-04  1.0782e+00  2.4044e-03  0:03:50 1778
   233  2.4154e-03  3.7003e-03  5.9895e-04  1.0765e+00  2.4145e-03  0:03:04 1777
   234  2.3969e-03  3.6685e-03  6.2070e-04  1.0701e+00  2.3961e-03  0:02:27 1776
   235  2.3508e-03  3.6314e-03  6.3690e-04  1.0483e+00  2.3501e-03  0:01:58 1775
   236  2.2783e-03  3.5909e-03  6.4704e-04  9.9438e-01  2.2777e-03  0:01:34 1774
   237  2.1806e-03  3.5488e-03  6.5120e-04  9.3879e-01  2.1802e-03  0:01:15 1773
   238  2.0598e-03  3.5073e-03  6.4972e-04  9.1445e-01  2.0595e-03  0:01:00 1772
   239  1.9180e-03  3.4692e-03  6.4151e-04  9.2708e-01  1.9178e-03  0:00:48 1771
   240  1.7575e-03  3.4387e-03  6.2794e-04  9.3298e-01  1.7574e-03  0:00:38 1770

  iter  continuity  x-velocity  y-velocity  z-velocity      energy     time/iter
   241  1.5814e-03  3.4155e-03  6.0900e-04  9.4330e-01  1.5816e-03  0:00:31 1769
   242  1.3929e-03  3.3978e-03  5.8421e-04  9.8255e-01  1.3932e-03  0:00:25 1768
   243  1.1958e-03  3.3872e-03  5.5564e-04  1.0616e+00  1.1963e-03  0:00:20 1767
   244  9.9609e-04  3.3862e-03  5.2423e-04  1.1671e+00  9.9689e-04  0:00:16 1766
   245  8.0191e-04  3.3956e-03  4.8934e-04  1.2817e+00  8.0307e-04  0:00:13 1765
   246  6.2775e-04  3.4155e-03  4.5298e-04  1.3963e+00  6.2937e-04  0:00:10 1764
   247  5.0113e-04  3.4441e-03  4.1642e-04  1.5064e+00  5.0329e-04  0:00:08 1763
   248  4.6380e-04  3.4792e-03  3.8129e-04  1.6158e+00  4.6620e-04  0:00:06 1762
   249  5.2990e-04  3.5182e-03  3.4841e-04  1.7330e+00  5.3199e-04  0:00:05 1761
   250  6.6258e-04  3.5581e-03  3.2074e-04  1.8410e+00  6.6419e-04  0:00:04 1760
   251  8.2187e-04  3.5956e-03  3.0067e-04  1.9287e+00  8.2309e-04  0:05:55 1759

  iter  continuity  x-velocity  y-velocity  z-velocity      energy     time/iter
   252  9.8695e-04  3.6319e-03  2.8994e-04  2.0055e+00  9.8789e-04  0:04:44 1758
   253  1.1465e-03  3.6629e-03  2.8918e-04  2.0693e+00  1.1472e-03  0:03:47 1757
   254  1.2940e-03  3.6847e-03  2.9767e-04  2.1060e+00  1.2945e-03  0:03:01 1756
   255  1.4259e-03  3.7014e-03  3.1356e-04  2.1225e+00  1.4264e-03  0:02:25 1755
   256  1.5394e-03  3.7099e-03  3.3436e-04  2.1204e+00  1.5397e-03  0:01:56 1754
   257  1.6309e-03  3.6943e-03  3.5689e-04  2.0890e+00  1.6311e-03  0:01:33 1753
   258  1.7031e-03  3.6793e-03  3.8096e-04  2.0421e+00  1.7032e-03  0:01:14 1752
   259  1.7531e-03  3.6596e-03  4.0366e-04  1.9864e+00  1.7531e-03  0:00:59 1751
   260  1.7796e-03  3.6316e-03  4.2455e-04  1.9194e+00  1.7796e-03  0:00:47 1750
   261  1.7829e-03  3.5990e-03  4.4295e-04  1.8239e+00  1.7828e-03  0:00:38 1749
   262  1.7639e-03  3.5588e-03  4.5764e-04  1.7384e+00  1.7636e-03  0:00:30 1748

  iter  continuity  x-velocity  y-velocity  z-velocity      energy     time/iter
   263  1.7226e-03  3.5086e-03  4.6800e-04  1.6831e+00  1.7223e-03  0:00:24 1747
   264  1.6603e-03  3.4507e-03  4.7409e-04  1.6822e+00  1.6599e-03  0:00:19 1746
   265  1.5782e-03  3.3871e-03  4.7498e-04  1.7392e+00  1.5778e-03  0:00:15 1745
   266  1.4783e-03  3.3217e-03  4.7146e-04  1.8621e+00  1.4778e-03  0:00:12 1744
   267  1.3625e-03  3.2569e-03  4.6366e-04  2.0242e+00  1.3619e-03  0:00:10 1743
   268  1.2329e-03  3.1944e-03  4.5228e-04  2.1909e+00  1.2322e-03  0:00:08 1742
   269  1.0920e-03  3.1364e-03  4.3708e-04  2.3329e+00  1.0911e-03  0:00:06 1741
   270  9.4272e-04  3.0841e-03  4.1833e-04  2.4404e+00  9.4168e-04  0:00:05 1740
   271  7.8867e-04  3.0383e-03  3.9647e-04  2.5194e+00  7.8739e-04  0:00:04 1739
   272  6.3492e-04  2.9984e-03  3.7230e-04  2.5054e+00  6.3328e-04  0:05:51 1738
   273  4.8993e-04  2.9670e-03  3.4673e-04  2.4266e+00  4.8774e-04  0:04:41 1737

  iter  continuity  x-velocity  y-velocity  z-velocity      energy     time/iter
   274  3.6998e-04  2.9452e-03  3.2047e-04  2.3101e+00  3.6700e-04  0:03:44 1736
   275  3.0771e-04  2.9317e-03  2.9417e-04  2.1813e+00  3.0401e-04  0:02:59 1735
   276  3.3326e-04  2.9246e-03  2.7008e-04  2.0562e+00  3.2974e-04  0:02:23 1734
   277  4.2661e-04  2.9243e-03  2.4933e-04  1.9317e+00  4.2380e-04  0:01:55 1733
   278  5.4777e-04  2.9291e-03  2.3351e-04  1.7972e+00  5.4555e-04  0:01:32 1732
   279  6.7496e-04  2.9372e-03  2.2353e-04  1.6583e+00  6.7314e-04  0:01:13 1731
   280  7.9858e-04  2.9476e-03  2.2023e-04  1.5260e+00  7.9703e-04  0:00:59 1730
   281  9.1373e-04  2.9591e-03  2.2373e-04  1.4165e+00  9.1237e-04  0:00:47 1729
   282  1.0174e-03  2.9698e-03  2.3303e-04  1.3514e+00  1.0162e-03  0:00:37 1728
   283  1.1078e-03  2.9789e-03  2.4619e-04  1.3135e+00  1.1067e-03  0:00:30 1727
   284  1.1836e-03  2.9862e-03  2.6072e-04  1.2958e+00  1.1826e-03  0:00:24 1726

  iter  continuity  x-velocity  y-velocity  z-velocity      energy     time/iter
   285  1.2439e-03  2.9911e-03  2.7825e-04  1.3135e+00  1.2430e-03  0:00:19 1725
   286  1.2878e-03  2.9920e-03  2.9538e-04  1.3673e+00  1.2870e-03  0:00:15 1724
   287  1.3157e-03  2.9909e-03  3.1164e-04  1.3902e+00  1.3149e-03  0:00:12 1723
   288  1.3271e-03  2.9876e-03  3.2570e-04  1.3853e+00  1.3265e-03  0:00:10 1722
   289  1.3222e-03  2.9781e-03  3.3769e-04  1.3503e+00  1.3216e-03  0:00:08 1721
   290  1.3017e-03  2.9675e-03  3.4669e-04  1.2887e+00  1.3012e-03  0:00:06 1720
   291  1.2663e-03  2.9595e-03  3.5312e-04  1.2131e+00  1.2659e-03  0:00:05 1719
   292  1.2167e-03  2.9514e-03  3.5639e-04  1.1480e+00  1.2164e-03  0:00:04 1718
   293  1.1539e-03  2.9423e-03  3.5643e-04  1.1083e+00  1.1538e-03  0:05:47 1717
   294  1.0792e-03  2.9342e-03  3.5336e-04  1.0906e+00  1.0792e-03  0:04:37 1716
   295  9.9382e-04  2.9280e-03  3.4764e-04  1.0879e+00  9.9389e-04  0:03:42 1715

  iter  continuity  x-velocity  y-velocity  z-velocity      energy     time/iter
   296  8.9917e-04  2.9239e-03  3.3971e-04  1.1039e+00  8.9939e-04  0:02:57 1714
   297  7.9711e-04  2.9231e-03  3.2873e-04  1.1464e+00  7.9749e-04  0:02:22 1713
   298  6.8951e-04  2.9253e-03  3.1478e-04  1.2220e+00  6.9007e-04  0:01:53 1712
   299  5.7880e-04  2.9304e-03  2.9957e-04  1.3266e+00  5.7959e-04  0:01:31 1711
   300  4.6796e-04  2.9391e-03  2.8334e-04  1.4402e+00  4.6906e-04  0:01:12 1710
   301  3.6201e-04  2.9522e-03  2.6644e-04  1.5475e+00  3.6354e-04  0:00:58 1709
   302  2.6916e-04  2.9691e-03  2.4923e-04  1.6347e+00  2.7129e-04  0:00:46 1708
   303  2.1378e-04  2.9890e-03  2.3157e-04  1.6943e+00  2.1641e-04  0:00:37 1707
   304  2.2348e-04  3.0096e-03  2.1664e-04  1.7263e+00  2.2595e-04  0:00:30 1706
   305  2.8508e-04  3.0295e-03  2.0471e-04  1.7367e+00  2.8698e-04  0:00:24 1705
   306  3.6923e-04  3.0489e-03  1.9596e-04  1.7412e+00  3.7065e-04  0:00:19 1704

  iter  continuity  x-velocity  y-velocity  z-velocity      energy     time/iter
   307  4.5954e-04  3.0664e-03  1.9037e-04  1.7533e+00  4.6062e-04  0:00:15 1703
   308  5.4866e-04  3.0813e-03  1.8842e-04  1.7468e+00  5.4949e-04  0:00:12 1702
   309  6.3283e-04  3.0936e-03  1.9039e-04  1.6779e+00  6.3348e-04  0:00:10 1701
   310  7.0974e-04  3.1025e-03  1.9656e-04  1.5676e+00  7.1024e-04  0:00:08 1700
   311  7.7809e-04  3.1075e-03  2.0485e-04  1.4336e+00  7.7847e-04  0:00:06 1699
   312  8.3687e-04  3.1088e-03  2.1540e-04  1.2904e+00  8.3715e-04  0:00:05 1698
   313  8.8539e-04  3.1051e-03  2.2639e-04  1.1480e+00  8.8557e-04  0:00:04 1697
   314  9.2308e-04  3.0963e-03  2.3728e-04  1.0207e+00  9.2318e-04  0:05:42 1696
   315  9.4925e-04  3.0866e-03  2.4682e-04  9.1359e-01  9.4929e-04  0:04:34 1695
   316  9.6406e-04  3.0746e-03  2.5609e-04  8.2557e-01  9.6405e-04  0:03:39 1694
   317  9.6759e-04  3.0596e-03  2.6477e-04  7.5815e-01  9.6754e-04  0:02:55 1693

  iter  continuity  x-velocity  y-velocity  z-velocity      energy     time/iter
   318  9.5987e-04  3.0384e-03  2.7081e-04  7.0717e-01  9.5977e-04  0:02:20 1692
   319  9.4118e-04  3.0120e-03  2.7493e-04  6.6752e-01  9.4103e-04  0:01:52 1691
   320  9.1205e-04  2.9827e-03  2.7752e-04  6.3380e-01  9.1186e-04  0:01:29 1690
   321  8.7300e-04  2.9522e-03  2.7777e-04  6.0087e-01  8.7277e-04  0:01:12 1689
   322  8.2472e-04  2.9211e-03  2.7581e-04  5.6817e-01  8.2444e-04  0:00:57 1688
   323  7.6776e-04  2.8885e-03  2.6966e-04  5.3788e-01  7.6743e-04  0:00:46 1687
   324  7.0441e-04  2.8583e-03  2.6404e-04  5.1698e-01  7.0402e-04  0:00:37 1686
   325  6.3448e-04  2.8273e-03  2.5668e-04  5.0422e-01  6.3404e-04  0:00:29 1685
   326  5.5900e-04  2.8004e-03  2.4786e-04  4.9863e-01  5.5850e-04  0:00:23 1684
   327  4.7969e-04  2.7812e-03  2.3715e-04  4.9645e-01  4.7911e-04  0:00:19 1683
   328  3.9855e-04  2.7677e-03  2.2527e-04  4.9047e-01  3.9786e-04  0:00:15 1682

  iter  continuity  x-velocity  y-velocity  z-velocity      energy     time/iter
   329  3.1737e-04  2.7580e-03  2.1394e-04  4.8359e-01  3.1652e-04  0:00:12 1681
   330  2.4200e-04  2.7534e-03  2.0083e-04  4.7848e-01  2.4090e-04  0:00:10 1680
   331  1.8157e-04  2.7520e-03  1.8710e-04  4.7669e-01  1.8014e-04  0:00:08 1679
   332  1.5297e-04  2.7484e-03  1.7544e-04  4.8608e-01  1.5133e-04  0:00:06 1678
   333  1.7284e-04  2.7473e-03  1.6502e-04  5.0290e-01  1.7147e-04  0:00:05 1677
   334  2.2616e-04  2.7494e-03  1.5647e-04  5.3267e-01  2.2518e-04  0:05:39 1676
   335  2.9186e-04  2.7525e-03  1.5066e-04  5.8018e-01  2.9115e-04  0:04:31 1675
   336  3.6001e-04  2.7608e-03  1.4853e-04  6.4538e-01  3.5949e-04  0:03:37 1674
   337  4.2580e-04  2.7680e-03  1.4776e-04  7.1162e-01  4.2540e-04  0:02:53 1673
   338  4.8694e-04  2.7725e-03  1.4964e-04  7.8546e-01  4.8662e-04  0:02:19 1672
   339  5.4235e-04  2.7761e-03  1.5442e-04  8.8115e-01  5.4208e-04  0:01:51 1671

  iter  continuity  x-velocity  y-velocity  z-velocity      energy     time/iter
   340  5.9076e-04  2.7769e-03  1.5768e-04  9.9458e-01  5.9054e-04  0:01:29 1670
   341  6.3198e-04  2.7759e-03  1.6685e-04  1.1217e+00  6.3181e-04  0:01:11 1669
   342  6.6494e-04  2.7727e-03  1.7700e-04  1.2684e+00  6.6480e-04  0:00:57 1668
   343  6.8927e-04  2.7663e-03  1.8448e-04  1.4116e+00  6.8913e-04  0:00:45 1667
   344  7.0581e-04  2.7571e-03  1.9221e-04  1.5490e+00  7.0568e-04  0:00:36 1666
   345  7.1388e-04  2.7455e-03  1.9860e-04  1.6876e+00  7.1376e-04  0:00:29 1665
   346  7.1360e-04  2.7332e-03  2.0391e-04  1.8054e+00  7.1351e-04  0:00:23 1664
   347  7.0501e-04  2.7239e-03  2.0919e-04  1.8823e+00  7.0493e-04  0:00:18 1663
   348  6.8908e-04  2.7176e-03  2.1274e-04  1.9097e+00  6.8903e-04  0:00:15 1662
   349  6.6585e-04  2.7135e-03  2.1343e-04  1.8991e+00  6.6580e-04  0:05:44 1661
   350  6.3577e-04  2.7118e-03  2.1249e-04  1.8626e+00  6.3573e-04  0:04:35 1660

  iter  continuity  x-velocity  y-velocity  z-velocity      energy     time/iter
   351  6.0022e-04  2.7126e-03  2.0904e-04  1.8056e+00  6.0021e-04  0:03:40 1659
   352  5.5791e-04  2.7107e-03  2.0637e-04  1.7179e+00  5.5793e-04  0:02:56 1658
   353  5.1001e-04  2.7066e-03  2.0269e-04  1.6281e+00  5.1005e-04  0:02:21 1657
   354  4.5817e-04  2.7070e-03  1.9708e-04  1.5740e+00  4.5821e-04  0:01:52 1656
   355  4.0303e-04  2.7078e-03  1.9011e-04  1.5761e+00  4.0306e-04  0:01:30 1655
   356  3.4545e-04  2.7058e-03  1.8229e-04  1.6475e+00  3.4546e-04  0:01:12 1654
   357  2.8756e-04  2.7018e-03  1.7320e-04  1.7533e+00  2.8755e-04  0:00:57 1653
   358  2.3068e-04  2.6946e-03  1.6403e-04  1.8685e+00  2.3061e-04  0:00:46 1652
   359  1.7912e-04  2.6866e-03  1.5342e-04  1.9703e+00  1.7893e-04  0:00:37 1651
   360  1.4117e-04  2.6779e-03  1.4165e-04  2.0478e+00  1.4080e-04  0:00:29 1650
   361  1.2622e-04  2.6699e-03  1.3206e-04  2.0703e+00  1.2568e-04  0:00:23 1649

  iter  continuity  x-velocity  y-velocity  z-velocity      energy     time/iter
   362  1.3920e-04  2.6597e-03  1.2458e-04  2.0117e+00  1.3856e-04  0:00:19 1648
   363  1.7143e-04  2.6426e-03  1.1851e-04  1.9402e+00  1.7076e-04  0:00:15 1647
   364  2.1405e-04  2.6235e-03  1.1309e-04  1.8676e+00  2.1340e-04  0:00:12 1646
   365  2.5977e-04  2.6027e-03  1.0865e-04  1.7772e+00  2.5915e-04  0:00:10 1645
   366  3.0451e-04  2.5724e-03  1.0632e-04  1.6855e+00  3.0392e-04  0:00:08 1644
   367  3.4670e-04  2.5451e-03  1.0609e-04  1.5942e+00  3.4611e-04  0:00:06 1643
   368  3.8486e-04  2.5185e-03  1.0861e-04  1.5223e+00  3.8426e-04  0:00:05 1642
   369  4.1820e-04  2.4934e-03  1.1321e-04  1.4615e+00  4.1761e-04  0:05:32 1641
   370  4.4638e-04  2.4712e-03  1.1865e-04  1.4297e+00  4.4581e-04  0:04:26 1640
   371  4.6909e-04  2.4506e-03  1.2429e-04  1.4149e+00  4.6852e-04  0:03:32 1639
   372  4.8589e-04  2.4295e-03  1.2742e-04  1.3942e+00  4.8535e-04  0:02:50 1638

  iter  continuity  x-velocity  y-velocity  z-velocity      energy     time/iter
   373  4.9702e-04  2.4092e-03  1.3240e-04  1.3492e+00  4.9651e-04  0:02:16 1637
   374  5.0250e-04  2.3901e-03  1.3728e-04  1.3026e+00  5.0201e-04  0:01:48 1636
   375  5.0245e-04  2.3726e-03  1.4148e-04  1.2481e+00  5.0196e-04  0:01:27 1635
   376  4.9684e-04  2.3559e-03  1.4483e-04  1.1986e+00  4.9635e-04  0:01:09 1634
   377  4.8588e-04  2.3392e-03  1.4748e-04  1.1491e+00  4.8538e-04  0:00:55 1633
   378  4.6956e-04  2.3200e-03  1.4975e-04  1.1025e+00  4.6905e-04  0:00:44 1632
   379  4.4880e-04  2.3024e-03  1.5174e-04  1.0696e+00  4.4827e-04  0:00:35 1631
   380  4.2457e-04  2.2908e-03  1.4460e-04  1.0658e+00  4.2411e-04  0:00:28 1630
   381  3.9459e-04  2.2632e-03  1.4273e-04  1.1056e+00  3.9414e-04  0:00:23 1629
   382  3.6194e-04  2.2348e-03  1.3952e-04  1.1201e+00  3.6151e-04  0:00:18 1628
   383  3.2571e-04  2.2117e-03  1.3355e-04  1.1270e+00  3.2530e-04  0:00:14 1627

  iter  continuity  x-velocity  y-velocity  z-velocity      energy     time/iter
   384  2.8546e-04  2.1841e-03  1.2806e-04  1.1202e+00  2.8507e-04  0:00:12 1626
   385  2.4418e-04  2.1556e-03  1.2251e-04  1.1147e+00  2.4379e-04  0:00:09 1625
   386  2.0251e-04  2.1218e-03  1.1559e-04  1.1580e+00  2.0208e-04  0:00:07 1624
   387  1.6158e-04  2.0876e-03  1.0773e-04  1.2436e+00  1.6106e-04  0:00:06 1623
   388  1.2347e-04  2.0543e-03  9.9944e-05  1.3466e+00  1.2278e-04  0:00:05 1622
   389  9.1920e-05  2.0249e-03  9.2172e-05  1.4321e+00  9.1024e-05  0:05:28 1621
   390  7.4499e-05  1.9981e-03  8.4724e-05  1.4269e+00  7.3491e-05  0:04:22 1620
   391  8.0634e-05  1.9749e-03  7.7645e-05  1.3096e+00  7.9815e-05  0:03:30 1619
   392  1.0456e-04  1.9546e-03  7.1331e-05  1.1520e+00  1.0403e-04  0:02:48 1618
   393  1.3579e-04  1.9365e-03  6.6459e-05  1.0506e+00  1.3544e-04  0:02:14 1617
   394  1.6862e-04  1.9201e-03  6.3291e-05  1.0548e+00  1.6838e-04  0:01:47 1616

  iter  continuity  x-velocity  y-velocity  z-velocity      energy     time/iter
   395  2.0046e-04  1.9046e-03  6.0862e-05  1.1162e+00  2.0030e-04  0:01:26 1615
   396  2.3028e-04  1.8905e-03  6.0883e-05  1.1673e+00  2.3018e-04  0:01:08 1614
   397  2.5750e-04  1.8775e-03  6.3782e-05  1.1988e+00  2.5742e-04  0:00:55 1613
   398  2.8163e-04  1.8665e-03  6.8464e-05  1.2173e+00  2.8155e-04  0:00:44 1612
   399  3.0224e-04  1.8571e-03  7.2422e-05  1.2207e+00  3.0216e-04  0:00:35 1611
   400  3.1872e-04  1.8462e-03  7.6617e-05  1.2074e+00  3.1864e-04  0:00:28 1610
   401  3.3152e-04  1.8363e-03  8.0646e-05  1.1954e+00  3.3144e-04  0:00:22 1609
   402  3.4048e-04  1.8271e-03  8.4637e-05  1.1881e+00  3.4039e-04  0:00:18 1608
   403  3.4557e-04  1.8190e-03  8.8378e-05  1.1922e+00  3.4547e-04  0:00:14 1607
   404  3.4684e-04  1.8116e-03  9.1616e-05  1.2072e+00  3.4673e-04  0:00:11 1606
   405  3.4425e-04  1.8025e-03  9.4268e-05  1.2296e+00  3.4412e-04  0:00:09 1605

  iter  continuity  x-velocity  y-velocity  z-velocity      energy     time/iter
   406  3.3797e-04  1.7924e-03  9.6205e-05  1.2604e+00  3.3782e-04  0:00:07 1604
   407  3.2823e-04  1.7820e-03  9.7259e-05  1.2949e+00  3.2805e-04  0:00:06 1603
   408  3.1510e-04  1.7697e-03  9.7476e-05  1.3293e+00  3.1490e-04  0:00:05 1602
   409  2.9898e-04  1.7565e-03  9.6880e-05  1.3673e+00  2.9873e-04  0:05:24 1601
   410  2.8018e-04  1.7433e-03  9.5498e-05  1.3944e+00  2.7989e-04  0:04:19 1600
   411  2.5904e-04  1.7302e-03  9.3452e-05  1.3721e+00  2.5870e-04  0:03:27 1599
   412  2.3591e-04  1.7175e-03  9.0831e-05  1.3280e+00  2.3551e-04  0:02:46 1598
   413  2.1120e-04  1.7053e-03  8.7758e-05  1.2710e+00  2.1075e-04  0:02:12 1597
   414  1.8531e-04  1.6917e-03  8.4604e-05  1.2151e+00  1.8479e-04  0:01:46 1596
   415  1.5868e-04  1.6760e-03  8.0855e-05  1.1700e+00  1.5804e-04  0:01:25 1595
   416  1.3071e-04  1.6582e-03  7.4944e-05  1.1437e+00  1.2993e-04  0:01:08 1594

  iter  continuity  x-velocity  y-velocity  z-velocity      energy     time/iter
   417  1.0438e-04  1.6416e-03  6.9242e-05  1.1621e+00  1.0339e-04  0:00:54 1593
   418  8.1455e-05  1.6265e-03  6.3703e-05  1.2649e+00  8.0180e-05  0:00:43 1592
   419  6.5426e-05  1.6127e-03  5.8824e-05  1.4209e+00  6.3857e-05  0:00:35 1591
   420  6.1582e-05  1.6003e-03  5.4549e-05  1.5429e+00  5.9949e-05  0:00:28 1590
   421  7.1014e-05  1.5899e-03  5.0911e-05  1.5579e+00  6.9623e-05  0:00:22 1589
   422  8.8255e-05  1.5812e-03  4.8245e-05  1.4516e+00  8.7153e-05  0:00:18 1588
   423  1.0668e-04  1.5678e-03  4.6715e-05  1.2601e+00  1.0581e-04  0:00:14 1587
   424  1.2769e-04  1.5597e-03  4.6002e-05  1.0742e+00  1.2700e-04  0:00:11 1586
   425  1.4835e-04  1.5552e-03  4.6784e-05  1.0229e+00  1.4779e-04  0:00:09 1585
   426  1.6760e-04  1.5531e-03  4.8773e-05  1.1640e+00  1.6711e-04  0:00:07 1584
   427  1.8507e-04  1.5533e-03  5.1576e-05  1.3792e+00  1.8464e-04  0:00:06 1583

  iter  continuity  x-velocity  y-velocity  z-velocity      energy     time/iter
   428  2.0050e-04  1.5563e-03  5.5040e-05  1.5631e+00  2.0011e-04  0:00:05 1582
   429  2.1333e-04  1.5566e-03  5.9005e-05  1.6952e+00  2.1299e-04  0:00:04 1581
   430  2.2358e-04  1.5500e-03  6.2209e-05  1.7959e+00  2.2328e-04  0:05:19 1580
   431  2.3167e-04  1.5462e-03  6.4148e-05  1.8770e+00  2.3140e-04  0:04:15 1579
   432  2.3725e-04  1.5437e-03  6.6207e-05  1.9454e+00  2.3701e-04  0:03:24 1578
   433  2.4025e-04  1.5409e-03  6.8282e-05  2.0196e+00  2.4003e-04  0:02:43 1577
   434  2.3682e-04  1.5111e-03  6.9349e-05  2.1014e+00  2.3664e-04  0:02:10 1576
   435  2.3226e-04  1.4874e-03  6.9892e-05  2.2059e+00  2.3209e-04  0:01:44 1575
   436  2.2605e-04  1.4674e-03  7.0231e-05  2.3334e+00  2.2589e-04  0:01:23 1574
   437  2.1791e-04  1.4490e-03  7.0294e-05  2.4461e+00  2.1775e-04  0:01:07 1573
   438  2.0780e-04  1.4318e-03  6.9966e-05  2.5139e+00  2.0765e-04  0:00:53 1572

  iter  continuity  x-velocity  y-velocity  z-velocity      energy     time/iter
   439  1.9565e-04  1.4174e-03  6.9020e-05  2.5355e+00  1.9550e-04  0:00:43 1571
   440  1.8133e-04  1.4114e-03  6.7509e-05  2.5159e+00  1.8119e-04  0:00:34 1570
   441  1.6621e-04  1.4067e-03  6.6501e-05  2.4509e+00  1.6608e-04  0:00:27 1569
   442  1.4791e-04  1.3891e-03  6.4873e-05  2.3523e+00  1.4780e-04  0:00:22 1568
   443  1.3023e-04  1.3766e-03  6.2542e-05  2.2211e+00  1.3014e-04  0:00:17 1567
   444  1.1212e-04  1.3656e-03  5.9873e-05  2.0664e+00  1.1205e-04  0:00:14 1566
   445  9.4601e-05  1.3486e-03  5.5355e-05  1.9144e+00  9.4571e-05  0:00:11 1565
   446  7.9078e-05  1.3344e-03  5.1572e-05  1.7844e+00  7.9071e-05  0:00:09 1564
   447  6.4481e-05  1.3209e-03  4.7757e-05  1.6814e+00  6.4476e-05  0:00:07 1563
   448  5.2745e-05  1.3095e-03  4.4403e-05  1.6133e+00  5.2720e-05  0:00:06 1562
   449  4.7120e-05  1.3008e-03  4.1937e-05  1.5715e+00  4.7038e-05  0:00:05 1561

  iter  continuity  x-velocity  y-velocity  z-velocity      energy     time/iter
   450  5.0507e-05  1.2968e-03  4.0215e-05  1.5619e+00  5.0340e-05  0:00:04 1560
   451  5.9984e-05  1.2957e-03  4.0173e-05  1.5671e+00  5.9791e-05  0:00:03 1559
   452  7.3077e-05  1.2967e-03  4.1591e-05  1.5695e+00  7.2881e-05  0:05:14 1558
   453  8.7531e-05  1.2995e-03  4.3797e-05  1.5525e+00  8.7351e-05  0:04:11 1557
   454  9.9077e-05  1.2978e-03  4.5933e-05  1.5046e+00  9.8936e-05  0:03:21 1556
   455  1.1030e-04  1.2957e-03  4.6229e-05  1.4619e+00  1.1016e-04  0:02:40 1555
   456  1.2087e-04  1.2938e-03  4.6462e-05  1.4484e+00  1.2073e-04  0:02:08 1554
   457  1.3038e-04  1.2917e-03  4.7085e-05  1.4602e+00  1.3024e-04  0:01:43 1553
   458  1.3840e-04  1.2878e-03  4.7882e-05  1.4794e+00  1.3825e-04  0:01:22 1552
   459  1.4485e-04  1.2818e-03  4.8616e-05  1.4505e+00  1.4470e-04  0:01:06 1551
   460  1.4975e-04  1.2743e-03  4.9283e-05  1.3492e+00  1.4961e-04  0:00:52 1550

  iter  continuity  x-velocity  y-velocity  z-velocity      energy     time/iter
   461  1.5294e-04  1.2655e-03  4.9973e-05  1.2264e+00  1.5279e-04  0:00:42 1549
   462  1.5444e-04  1.2557e-03  5.0539e-05  1.1414e+00  1.5429e-04  0:00:33 1548
   463  1.5432e-04  1.2450e-03  5.0853e-05  1.0974e+00  1.5416e-04  0:00:27 1547
   464  1.5257e-04  1.2334e-03  5.0892e-05  1.0849e+00  1.5242e-04  0:00:21 1546
   465  1.4929e-04  1.2214e-03  5.0622e-05  1.0847e+00  1.4914e-04  0:00:17 1545
   466  1.4453e-04  1.2101e-03  5.0142e-05  1.0936e+00  1.4436e-04  0:00:14 1544
   467  1.3832e-04  1.1994e-03  4.9412e-05  1.1062e+00  1.3815e-04  0:00:11 1543
   468  1.3090e-04  1.1886e-03  4.8575e-05  1.0934e+00  1.3071e-04  0:00:09 1542
   469  1.2240e-04  1.1783e-03  4.7491e-05  1.0584e+00  1.2218e-04  0:00:07 1541
   470  1.1293e-04  1.1682e-03  4.6183e-05  1.0130e+00  1.1268e-04  0:00:06 1540
   471  1.0236e-04  1.1556e-03  4.4622e-05  9.6358e-01  1.0207e-04  0:00:04 1539

  iter  continuity  x-velocity  y-velocity  z-velocity      energy     time/iter
   472  9.1279e-05  1.1443e-03  4.2314e-05  9.1601e-01  9.0964e-05  0:00:04 1538
   473  7.9851e-05  1.1342e-03  4.0107e-05  8.7353e-01  7.9502e-05  0:05:10 1537
   474  6.8360e-05  1.1248e-03  3.8010e-05  8.3627e-01  6.7958e-05  0:04:08 1536
   475  5.7197e-05  1.1160e-03  3.5968e-05  8.0496e-01  5.6717e-05  0:03:18 1535
   476  4.6831e-05  1.1076e-03  3.3797e-05  7.7977e-01  4.6236e-05  0:02:39 1534
   477  3.8362e-05  1.1001e-03  3.1534e-05  7.5873e-01  3.7627e-05  0:02:07 1533
   478  3.3220e-05  1.0928e-03  2.9544e-05  7.3938e-01  3.2380e-05  0:01:41 1532
   479  3.2807e-05  1.0858e-03  2.7737e-05  7.2112e-01  3.1984e-05  0:01:21 1531
   480  3.6706e-05  1.0787e-03  2.6422e-05  7.0594e-01  3.6006e-05  0:01:05 1530
   481  4.1635e-05  1.0686e-03  2.5435e-05  6.9496e-01  4.1106e-05  0:00:52 1529
   482  4.9546e-05  1.0604e-03  2.4010e-05  6.8326e-01  4.9137e-05  0:00:41 1528

  iter  continuity  x-velocity  y-velocity  z-velocity      energy     time/iter
   483  5.8199e-05  1.0536e-03  2.3392e-05  6.7072e-01  5.7863e-05  0:00:33 1527
   484  6.6616e-05  1.0472e-03  2.3356e-05  6.5527e-01  6.6335e-05  0:00:26 1526
   485  7.4375e-05  1.0410e-03  2.3662e-05  6.3748e-01  7.4138e-05  0:00:21 1525
   486  8.1261e-05  1.0346e-03  2.4321e-05  6.1942e-01  8.1062e-05  0:00:17 1524
   487  8.7160e-05  1.0281e-03  2.5285e-05  6.0253e-01  8.6991e-05  0:00:14 1523
   488  9.1837e-05  1.0204e-03  2.6251e-05  5.8811e-01  9.1690e-05  0:00:11 1522
   489  9.5481e-05  1.0110e-03  2.7071e-05  5.7858e-01  9.5352e-05  0:00:09 1521
   490  9.8294e-05  1.0029e-03  2.7978e-05  5.7702e-01  9.8180e-05  0:00:07 1520
   491  9.9897e-05  9.9531e-04  2.9005e-05  5.9315e-01  9.9796e-05  0:00:06 1519
   492  1.0031e-04  9.8765e-04  2.9855e-05  6.4422e-01  1.0022e-04  0:00:04 1518
   493  9.9472e-05  9.7956e-04  3.0515e-05  7.1996e-01  9.9399e-05  0:05:07 1517

  iter  continuity  x-velocity  y-velocity  z-velocity      energy     time/iter
   494  9.7563e-05  9.7160e-04  3.0926e-05  7.7290e-01  9.7495e-05  0:04:05 1516
   495  9.4436e-05  9.6349e-04  3.1013e-05  8.6874e-01  9.4370e-05  0:03:16 1515
   496  9.0509e-05  9.5625e-04  3.0724e-05  1.0163e+00  9.0448e-05  0:02:37 1514
   497  8.5623e-05  9.4977e-04  3.0301e-05  1.1905e+00  8.5555e-05  0:02:05 1513
   498  8.0087e-05  9.4389e-04  2.9811e-05  1.3291e+00  8.0016e-05  0:01:40 1512
   499  7.3952e-05  9.3858e-04  2.9272e-05  1.3892e+00  7.3878e-05  0:01:20 1511
   500  6.7234e-05  9.3382e-04  2.8609e-05  1.3952e+00  6.7159e-05  0:01:04 1510
   501  6.0184e-05  9.2985e-04  2.7741e-05  1.3769e+00  6.0107e-05  0:00:51 1509
   502  5.2955e-05  9.2667e-04  2.6760e-05  1.3451e+00  5.2875e-05  0:00:41 1508
   503  4.5768e-05  9.2395e-04  2.5805e-05  1.3115e+00  4.5682e-05  0:00:33 1507
   504  3.8699e-05  9.2113e-04  2.4862e-05  1.2911e+00  3.8615e-05  0:00:26 1506

  iter  continuity  x-velocity  y-velocity  z-velocity      energy     time/iter
   505  3.2109e-05  9.1866e-04  2.3840e-05  1.2774e+00  3.2060e-05  0:00:21 1505
   506  2.7161e-05  9.1666e-04  2.2865e-05  1.2466e+00  2.7118e-05  0:00:17 1504
   507  2.4519e-05  9.1465e-04  2.2019e-05  1.1887e+00  2.4455e-05  0:00:13 1503
   508  2.4805e-05  9.1242e-04  2.1254e-05  1.1059e+00  2.4706e-05  0:00:11 1502
   509  2.7653e-05  9.0974e-04  2.0536e-05  1.0078e+00  2.7532e-05  0:00:09 1501
   510  3.1839e-05  9.0643e-04  1.9992e-05  9.0883e-01  3.1726e-05  0:00:07 1500
   511  3.6665e-05  9.0246e-04  1.9728e-05  8.2212e-01  3.6567e-05  0:00:05 1499
   512  4.1718e-05  8.9825e-04  1.9651e-05  7.5892e-01  4.1626e-05  0:00:04 1498
   513  4.6650e-05  8.9378e-04  1.9685e-05  7.2068e-01  4.6558e-05  0:00:03 1497
   514  5.1248e-05  8.8901e-04  1.9767e-05  7.0721e-01  5.1154e-05  0:00:03 1496
   515  5.5349e-05  8.8373e-04  1.9990e-05  7.1486e-01  5.5254e-05  0:00:02 1495

  iter  continuity  x-velocity  y-velocity  z-velocity      energy     time/iter
   516  5.8326e-05  8.7595e-04  1.9974e-05  7.3746e-01  5.8235e-05  0:05:01 1494
   517  6.1000e-05  8.6815e-04  1.9781e-05  7.8818e-01  6.0914e-05  0:04:00 1493
   518  6.3301e-05  8.6180e-04  1.9915e-05  8.7382e-01  6.3215e-05  0:03:12 1492
   519  6.4806e-05  8.5573e-04  2.0228e-05  9.8212e-01  6.4719e-05  0:02:34 1491
   520  6.5507e-05  8.4984e-04  2.0529e-05  1.0910e+00  6.5419e-05  0:02:03 1490
   521  6.5454e-05  8.4407e-04  2.0747e-05  1.1804e+00  6.5365e-05  0:01:38 1489
   522  6.4671e-05  8.3845e-04  2.0867e-05  1.2483e+00  6.4581e-05  0:01:18 1488
   523  6.3214e-05  8.3298e-04  2.0920e-05  1.2934e+00  6.3124e-05  0:01:03 1487
   524  6.1105e-05  8.2761e-04  2.0865e-05  1.3239e+00  6.1016e-05  0:00:50 1486
   525  5.8389e-05  8.2239e-04  2.0739e-05  1.3435e+00  5.8298e-05  0:00:40 1485
   526  5.5140e-05  8.1734e-04  2.0589e-05  1.3540e+00  5.5044e-05  0:00:32 1484

  iter  continuity  x-velocity  y-velocity  z-velocity      energy     time/iter
   527  5.1405e-05  8.1247e-04  2.0318e-05  1.3514e+00  5.1301e-05  0:00:26 1483
   528  4.7125e-05  8.0764e-04  1.9834e-05  1.3424e+00  4.7003e-05  0:00:20 1482
   529  4.2522e-05  8.0332e-04  1.9211e-05  1.3120e+00  4.2378e-05  0:00:16 1481
   530  3.7833e-05  8.0023e-04  1.8694e-05  1.2753e+00  3.7670e-05  0:00:13 1480
   531  3.2916e-05  7.9660e-04  1.7908e-05  1.2496e+00  3.2736e-05  0:00:10 1479
   532  2.7849e-05  7.9263e-04  1.6979e-05  1.2463e+00  2.7649e-05  0:00:08 1478
   533  2.2882e-05  7.8870e-04  1.5998e-05  1.2269e+00  2.2649e-05  0:00:07 1477
   534  1.8334e-05  7.8475e-04  1.5035e-05  1.1802e+00  1.8056e-05  0:00:05 1476
   535  1.4670e-05  7.8095e-04  1.4150e-05  1.1007e+00  1.4337e-05  0:00:04 1475
   536  1.2549e-05  7.7733e-04  1.3290e-05  9.8876e-01  1.2159e-05  0:00:03 1474
   537  1.2724e-05  7.7348e-04  1.2490e-05  8.6754e-01  1.2343e-05  0:00:03 1473

  iter  continuity  x-velocity  y-velocity  z-velocity      energy     time/iter
   538  1.4998e-05  7.6965e-04  1.1860e-05  7.7632e-01  1.4676e-05  0:00:02 1472
   539  1.8431e-05  7.6569e-04  1.1374e-05  7.2347e-01  1.8172e-05  0:04:56 1471
   540  2.1986e-05  7.6182e-04  1.1033e-05  7.2355e-01  2.1771e-05  0:03:57 1470
   541  2.5740e-05  7.5747e-04  1.0823e-05  7.4459e-01  2.5558e-05  0:03:09 1469
   542  2.9376e-05  7.5330e-04  1.0796e-05  7.5160e-01  2.9221e-05  0:02:31 1468
   543  3.2475e-05  7.4943e-04  1.0971e-05  7.7229e-01  3.2340e-05  0:02:01 1467
   544  3.5271e-05  7.4568e-04  1.1184e-05  7.9965e-01  3.5152e-05  0:01:37 1466
   545  3.7558e-05  7.4164e-04  1.1487e-05  8.2297e-01  3.7466e-05  0:01:17 1465
   546  3.9521e-05  7.3785e-04  1.1853e-05  8.3258e-01  3.9454e-05  0:01:02 1464
   547  4.0890e-05  7.3403e-04  1.2482e-05  8.3889e-01  4.0832e-05  0:00:49 1463
   548  4.1709e-05  7.3021e-04  1.3073e-05  8.3713e-01  4.1651e-05  0:00:39 1462

  iter  continuity  x-velocity  y-velocity  z-velocity      energy     time/iter
   549  4.2071e-05  7.2656e-04  1.3374e-05  8.2250e-01  4.2013e-05  0:00:32 1461
   550  4.1955e-05  7.2309e-04  1.3501e-05  7.9112e-01  4.1900e-05  0:00:25 1460
   551  4.1363e-05  7.1958e-04  1.3537e-05  7.4983e-01  4.1317e-05  0:00:20 1459
   552  4.0306e-05  7.1589e-04  1.3545e-05  7.0243e-01  4.0271e-05  0:00:16 1458
   553  3.8844e-05  7.1206e-04  1.3615e-05  6.5298e-01  3.8815e-05  0:00:13 1457
   554  3.7053e-05  7.0790e-04  1.3590e-05  6.0484e-01  3.7023e-05  0:00:10 1456
   555  3.4893e-05  7.0363e-04  1.3456e-05  5.5949e-01  3.4862e-05  0:00:08 1455
   556  3.2385e-05  6.9934e-04  1.3261e-05  5.1600e-01  3.2355e-05  0:00:07 1454
   557  2.9590e-05  6.9503e-04  1.3002e-05  4.7901e-01  2.9560e-05  0:00:05 1453
   558  2.6570e-05  6.9070e-04  1.2681e-05  4.4908e-01  2.6540e-05  0:00:04 1452
   559  2.3398e-05  6.8640e-04  1.2290e-05  4.2458e-01  2.3365e-05  0:00:03 1451

  iter  continuity  x-velocity  y-velocity  z-velocity      energy     time/iter
   560  2.0161e-05  6.8203e-04  1.1859e-05  4.0531e-01  2.0122e-05  0:00:03 1450
   561  1.6967e-05  6.7764e-04  1.1399e-05  3.9152e-01  1.6921e-05  0:00:02 1449
   562  1.3969e-05  6.7326e-04  1.0892e-05  3.7906e-01  1.3912e-05  0:00:02 1448
   563  1.1452e-05  6.6895e-04  1.0394e-05  3.6879e-01  1.1382e-05  0:04:51 1447
   564  9.8660e-06  6.6479e-04  1.0003e-05  3.6271e-01  9.7832e-06  0:03:52 1446
   565  9.7066e-06  6.6121e-04  9.6731e-06  3.7207e-01  9.6233e-06  0:03:06 1445
   566  1.0886e-05  6.5740e-04  9.3258e-06  4.0861e-01  1.0812e-05  0:02:29 1444
   567  1.2503e-05  6.5323e-04  9.0036e-06  4.7348e-01  1.2437e-05  0:01:59 1443
   568  1.4439e-05  6.4887e-04  8.6958e-06  5.4109e-01  1.4377e-05  0:01:35 1442
   569  1.6631e-05  6.4465e-04  8.4273e-06  5.8809e-01  1.6574e-05  0:01:16 1441
   570  1.8789e-05  6.4044e-04  8.2660e-06  6.1680e-01  1.8733e-05  0:01:01 1440

  iter  continuity  x-velocity  y-velocity  z-velocity      energy     time/iter
   571  2.0740e-05  6.3605e-04  8.2270e-06  6.3910e-01  2.0684e-05  0:00:49 1439
   572  2.2541e-05  6.3163e-04  8.1711e-06  6.4461e-01  2.2485e-05  0:00:39 1438
   573  2.4143e-05  6.2730e-04  8.2080e-06  6.2976e-01  2.4088e-05  0:00:31 1437
   574  2.5469e-05  6.2313e-04  8.3575e-06  5.9690e-01  2.5419e-05  0:00:25 1436
   575  2.6494e-05  6.1935e-04  8.5587e-06  5.5540e-01  2.6455e-05  0:00:20 1435
   576  2.7209e-05  6.1564e-04  8.7820e-06  5.1301e-01  2.7172e-05  0:00:16 1434
   577  2.7602e-05  6.1197e-04  8.9994e-06  4.7593e-01  2.7563e-05  0:00:13 1433
   578  2.7674e-05  6.0834e-04  9.1799e-06  4.4622e-01  2.7631e-05  0:00:10 1432
   579  2.7432e-05  6.0478e-04  9.3122e-06  4.2204e-01  2.7385e-05  0:00:08 1431
   580  2.6885e-05  6.0127e-04  9.3991e-06  3.9994e-01  2.6836e-05  0:00:06 1430
   581  2.6061e-05  5.9789e-04  9.4424e-06  3.7991e-01  2.6013e-05  0:04:51 1429

  iter  continuity  x-velocity  y-velocity  z-velocity      energy     time/iter
   582  2.4982e-05  5.9464e-04  9.4366e-06  3.6043e-01  2.4936e-05  0:03:53 1428
   583  2.3643e-05  5.9148e-04  9.3971e-06  3.4198e-01  2.3593e-05  0:03:06 1427
   584  2.2030e-05  5.8842e-04  9.3208e-06  3.2532e-01  2.1971e-05  0:02:29 1426
   585  2.0212e-05  5.8549e-04  9.1671e-06  3.1072e-01  2.0142e-05  0:01:59 1425
   586  1.8190e-05  5.8238e-04  8.9264e-06  2.9949e-01  1.8108e-05  0:01:35 1424
   587  1.6082e-05  5.7918e-04  8.6087e-06  2.9085e-01  1.5988e-05  0:01:16 1423
   588  1.3976e-05  5.7634e-04  8.2947e-06  2.8394e-01  1.3867e-05  0:01:01 1422
   589  1.1881e-05  5.7375e-04  8.0329e-06  2.7987e-01  1.1750e-05  0:00:49 1421
   590  9.8721e-06  5.7135e-04  7.7828e-06  2.7768e-01  9.7120e-06  0:00:39 1420
   591  8.0932e-06  5.6911e-04  7.5272e-06  2.7677e-01  7.8955e-06  0:00:31 1419
   592  6.7709e-06  5.6698e-04  7.2658e-06  2.7382e-01  6.5314e-06  0:00:25 1418

  iter  continuity  x-velocity  y-velocity  z-velocity      energy     time/iter
   593  6.2065e-06  5.6495e-04  7.0067e-06  2.7109e-01  5.9416e-06  0:00:20 1417
   594  6.5410e-06  5.6297e-04  6.7494e-06  2.7129e-01  6.2907e-06  0:00:16 1416
   595  7.5843e-06  5.6107e-04  6.4594e-06  2.7361e-01  7.3798e-06  0:00:13 1415
   596  9.0220e-06  5.5920e-04  6.3165e-06  2.7618e-01  8.8590e-06  0:00:10 1414
   597  1.0599e-05  5.5732e-04  6.2630e-06  2.7630e-01  1.0465e-05  0:00:08 1413
   598  1.2199e-05  5.5529e-04  6.2519e-06  2.7233e-01  1.2087e-05  0:00:06 1412
   599  1.3821e-05  5.5316e-04  6.3150e-06  2.6577e-01  1.3728e-05  0:00:05 1411
   600  1.5257e-05  5.5097e-04  6.5674e-06  2.8059e-01  1.5177e-05  0:00:04 1410
   601  1.6439e-05  5.4871e-04  6.8559e-06  3.1646e-01  1.6369e-05  0:00:03 1409
   602  1.7591e-05  5.4654e-04  6.9997e-06  3.2731e-01  1.7528e-05  0:00:03 1408
   603  1.8124e-05  5.4476e-04  6.7636e-06  3.0923e-01  1.8065e-05  0:00:02 1407

  iter  continuity  x-velocity  y-velocity  z-velocity      energy     time/iter
   604  1.8537e-05  5.4306e-04  6.6982e-06  3.1663e-01  1.8489e-05  0:04:43 1406
   605  1.8867e-05  5.4123e-04  6.6600e-06  3.3919e-01  1.8827e-05  0:03:46 1405
   606  1.9054e-05  5.3921e-04  6.7195e-06  3.6822e-01  1.9019e-05  0:03:01 1404
   607  1.8943e-05  5.3695e-04  6.8273e-06  4.2352e-01  1.8909e-05  0:02:25 1403
   608  1.8760e-05  5.3451e-04  6.8888e-06  4.4070e-01  1.8731e-05  0:01:56 1402
   609  1.8448e-05  5.3216e-04  6.9895e-06  3.9858e-01  1.8425e-05  0:01:32 1401
   610  1.7663e-05  5.2982e-04  7.0998e-06  3.5150e-01  1.7638e-05  0:01:14 1400
   611  1.6649e-05  5.2752e-04  7.0274e-06  3.5163e-01  1.6619e-05  0:00:59 1399
   612  1.5580e-05  5.2527e-04  6.8527e-06  3.7194e-01  1.5548e-05  0:00:47 1398
   613  1.4400e-05  5.2304e-04  6.7191e-06  3.8770e-01  1.4370e-05  0:00:38 1397
   614  1.3107e-05  5.2083e-04  6.5970e-06  3.9293e-01  1.3080e-05  0:00:30 1396

  iter  continuity  x-velocity  y-velocity  z-velocity      energy     time/iter
   615  1.1726e-05  5.1862e-04  6.4594e-06  3.9023e-01  1.1700e-05  0:00:24 1395
   616  1.0294e-05  5.1656e-04  6.2909e-06  3.8349e-01  1.0271e-05  0:00:19 1394
   617  9.0172e-06  5.1482e-04  6.2245e-06  3.7513e-01  9.0077e-06  0:00:15 1393
   618  7.8222e-06  5.1273e-04  5.9013e-06  3.6552e-01  7.8318e-06  0:00:12 1392
   619  6.6722e-06  5.1042e-04  5.6116e-06  3.5899e-01  6.6971e-06  0:00:10 1391
   620  5.7160e-06  5.0807e-04  5.4116e-06  3.5057e-01  5.7470e-06  0:00:08 1390
   621  5.1621e-06  5.0579e-04  5.2649e-06  3.4123e-01  5.1871e-06  0:00:06 1389
   622  5.1733e-06  5.0355e-04  5.1249e-06  3.3256e-01  5.1820e-06  0:00:05 1388
   623  5.7043e-06  5.0136e-04  4.9825e-06  3.2559e-01  5.6981e-06  0:00:04 1387
   624  6.5786e-06  4.9920e-04  4.8502e-06  3.2002e-01  6.5651e-06  0:00:03 1386
   625  7.6179e-06  4.9703e-04  4.7511e-06  3.1459e-01  7.5994e-06  0:00:03 1385

  iter  continuity  x-velocity  y-velocity  z-velocity      energy     time/iter
   626  8.7208e-06  4.9471e-04  4.6962e-06  3.0959e-01  8.6945e-06  0:00:02 1384
   627  9.7925e-06  4.9234e-04  4.6744e-06  3.0443e-01  9.7604e-06  0:00:02 1383
   628  1.0784e-05  4.8996e-04  4.6925e-06  2.9985e-01  1.0748e-05  0:04:38 1382
   629  1.1662e-05  4.8759e-04  4.7339e-06  2.9596e-01  1.1623e-05  0:03:42 1381
   630  1.2403e-05  4.8521e-04  4.7892e-06  2.9271e-01  1.2363e-05  0:02:57 1380
   631  1.2997e-05  4.8283e-04  4.8545e-06  2.9013e-01  1.2956e-05  0:02:22 1379
   632  1.3436e-05  4.8043e-04  4.9174e-06  2.8827e-01  1.3394e-05  0:01:53 1378
   633  1.3721e-05  4.7804e-04  4.9709e-06  2.8690e-01  1.3679e-05  0:01:31 1377
   634  1.3851e-05  4.7567e-04  5.0182e-06  2.8515e-01  1.3809e-05  0:01:12 1376
   635  1.3826e-05  4.7331e-04  5.0560e-06  2.8260e-01  1.3785e-05  0:00:58 1375
   636  1.3628e-05  4.7088e-04  5.0779e-06  2.8006e-01  1.3587e-05  0:00:46 1374

  iter  continuity  x-velocity  y-velocity  z-velocity      energy     time/iter
   637  1.3277e-05  4.6837e-04  5.0641e-06  2.7825e-01  1.3236e-05  0:00:37 1373
   638  1.2783e-05  4.6581e-04  5.0435e-06  2.7879e-01  1.2738e-05  0:00:30 1372
   639  1.2166e-05  4.6330e-04  5.0350e-06  2.7876e-01  1.2117e-05  0:00:24 1371
   640  1.1441e-05  4.6083e-04  5.0113e-06  2.7644e-01  1.1388e-05  0:00:19 1370
   641  1.0610e-05  4.5842e-04  4.9797e-06  2.7256e-01  1.0551e-05  0:00:15 1369
   642  9.6999e-06  4.5608e-04  4.9345e-06  2.7000e-01  9.6327e-06  0:00:12 1368
   643  8.7177e-06  4.5378e-04  4.8701e-06  2.6665e-01  8.6415e-06  0:00:10 1367
   644  7.6930e-06  4.5152e-04  4.7839e-06  2.6232e-01  7.6063e-06  0:00:08 1366
   645  6.6545e-06  4.4918e-04  4.6632e-06  2.5769e-01  6.5547e-06  0:00:06 1365
   646  5.6203e-06  4.4672e-04  4.5147e-06  2.5339e-01  5.5082e-06  0:00:05 1364
   647  4.6903e-06  4.4449e-04  4.3673e-06  2.5208e-01  4.5688e-06  0:00:04 1363

  iter  continuity  x-velocity  y-velocity  z-velocity      energy     time/iter
   648  3.9941e-06  4.4257e-04  4.2308e-06  2.5390e-01  3.8615e-06  0:00:03 1362
   649  3.4897e-06  4.4021e-04  4.1216e-06  2.5828e-01  3.3502e-06  0:00:03 1361
   650  3.4486e-06  4.3787e-04  3.9956e-06  2.6534e-01  3.3138e-06  0:00:02 1360
   651  3.8387e-06  4.3547e-04  3.8948e-06  2.7739e-01  3.7174e-06  0:04:33 1359
   652  4.4970e-06  4.3306e-04  3.8275e-06  2.9344e-01  4.3924e-06  0:03:39 1358
   653  5.2811e-06  4.3069e-04  3.8076e-06  3.1206e-01  5.1864e-06  0:02:55 1357
   654  6.1317e-06  4.2804e-04  3.8114e-06  3.2122e-01  6.0461e-06  0:02:20 1356
   655  7.0156e-06  4.2569e-04  3.9486e-06  3.3618e-01  6.9347e-06  0:01:52 1355
   656  7.9132e-06  4.2427e-04  4.2659e-06  3.7416e-01  7.8336e-06  0:01:29 1354
   657  8.4812e-06  4.2124e-04  4.0871e-06  4.4290e-01  8.4125e-06  0:01:11 1353
   658  9.1469e-06  4.1898e-04  4.2790e-06  4.7161e-01  9.0821e-06  0:00:57 1352

  iter  continuity  x-velocity  y-velocity  z-velocity      energy     time/iter
   659  9.8234e-06  4.1941e-04  4.6874e-06  4.5943e-01  9.7580e-06  0:00:46 1351
   660  1.0051e-05  4.1826e-04  4.4879e-06  4.2984e-01  9.9933e-06  0:00:36 1350
   661  1.0117e-05  4.1479e-04  4.1615e-06  4.0190e-01  1.0072e-05  0:00:29 1349
   662  1.0255e-05  4.1212e-04  3.9771e-06  3.9295e-01  1.0218e-05  0:00:23 1348
   663  1.0338e-05  4.0984e-04  3.8770e-06  3.9530e-01  1.0307e-05  0:00:19 1347
   664  1.0348e-05  4.0774e-04  3.8858e-06  4.0032e-01  1.0319e-05  0:00:15 1346
   665  1.0243e-05  4.0576e-04  3.9577e-06  4.0204e-01  1.0215e-05  0:00:12 1345
   666  1.0007e-05  4.0386e-04  4.0502e-06  3.9799e-01  9.9783e-06  0:00:10 1344
   667  9.7040e-06  4.0200e-04  4.1413e-06  3.8900e-01  9.6761e-06  0:00:08 1343
   668  9.4301e-06  4.0012e-04  4.2884e-06  3.7637e-01  9.4024e-06  0:00:06 1342
   669  9.1486e-06  3.9821e-04  4.5352e-06  3.7088e-01  9.1192e-06  0:00:05 1341

  iter  continuity  x-velocity  y-velocity  z-velocity      energy     time/iter
   670  8.6263e-06  3.9651e-04  4.4643e-06  3.7450e-01  8.5946e-06  0:00:04 1340
   671  7.7880e-06  3.9526e-04  4.2500e-06  3.6221e-01  7.7517e-06  0:00:03 1339
   672  6.7055e-06  3.9376e-04  4.1504e-06  3.4840e-01  6.6690e-06  0:00:02 1338
   673  5.8177e-06  3.9206e-04  3.8906e-06  3.3904e-01  5.7772e-06  0:00:02 1337
   674  5.0155e-06  3.9027e-04  3.7163e-06  3.3102e-01  4.9633e-06  0:04:29 1336
   675  4.2563e-06  3.8852e-04  3.5604e-06  3.2359e-01  4.1877e-06  0:03:35 1335
   676  3.5673e-06  3.8688e-04  3.3844e-06  3.1639e-01  3.4802e-06  0:02:52 1334
   677  3.0111e-06  3.8532e-04  3.2151e-06  3.0928e-01  2.9057e-06  0:02:17 1333
   678  2.6707e-06  3.8378e-04  3.0713e-06  3.0206e-01  2.5525e-06  0:01:50 1332
   679  2.6135e-06  3.8221e-04  2.9573e-06  2.9442e-01  2.4947e-06  0:01:28 1331
   680  2.8407e-06  3.8060e-04  2.8702e-06  2.8666e-01  2.7323e-06  0:01:10 1330

  iter  continuity  x-velocity  y-velocity  z-velocity      energy     time/iter
   681  3.4662e-06  3.7889e-04  2.8163e-06  2.7888e-01  3.3758e-06  0:00:56 1329
   682  4.5963e-06  3.7719e-04  2.8446e-06  2.7139e-01  4.5251e-06  0:00:45 1328
   683  5.5711e-06  3.7568e-04  3.0223e-06  2.6821e-01  5.5082e-06  0:00:36 1327
   684  5.6562e-06  3.7396e-04  3.2531e-06  2.6915e-01  5.5857e-06  0:00:29 1326
   685  5.8206e-06  3.7249e-04  3.5025e-06  2.6805e-01  5.7483e-06  0:00:23 1325
   686  6.4878e-06  3.7136e-04  3.5119e-06  2.6809e-01  6.4294e-06  0:00:18 1324
   687  6.8843e-06  3.6950e-04  2.8672e-06  2.6416e-01  6.8386e-06  0:00:15 1323
   688  7.0399e-06  3.6742e-04  2.5925e-06  2.5639e-01  6.9989e-06  0:00:12 1322
   689  7.1504e-06  3.6540e-04  2.6141e-06  2.4848e-01  7.1083e-06  0:00:09 1321
   690  7.2545e-06  3.6347e-04  2.6793e-06  2.4186e-01  7.2089e-06  0:00:07 1320
   691  7.3254e-06  3.6160e-04  2.7298e-06  2.3653e-01  7.2764e-06  0:00:06 1319

  iter  continuity  x-velocity  y-velocity  z-velocity      energy     time/iter
   692  7.3388e-06  3.5974e-04  2.7601e-06  2.3216e-01  7.2870e-06  0:00:05 1318
   693  7.2838e-06  3.5788e-04  2.7794e-06  2.2848e-01  7.2300e-06  0:00:04 1317
   694  7.1582e-06  3.5601e-04  2.7916e-06  2.2514e-01  7.1027e-06  0:00:03 1316
   695  6.9632e-06  3.5413e-04  2.7952e-06  2.2211e-01  6.9059e-06  0:00:02 1315
   696  6.7015e-06  3.5226e-04  2.7875e-06  2.1939e-01  6.6421e-06  0:00:02 1314
   697  6.3767e-06  3.5038e-04  2.7668e-06  2.1700e-01  6.3149e-06  0:00:02 1313
   698  5.9943e-06  3.4850e-04  2.7335e-06  2.1499e-01  5.9296e-06  0:04:24 1312
   699  5.5612e-06  3.4661e-04  2.6885e-06  2.1324e-01  5.4929e-06  0:03:31 1311
   700  5.0856e-06  3.4472e-04  2.6329e-06  2.1169e-01  5.0127e-06  0:02:48 1310
   701  4.5774e-06  3.4284e-04  2.5693e-06  2.1046e-01  4.4983e-06  0:02:15 1309
   702  4.0505e-06  3.4097e-04  2.5071e-06  2.0966e-01  3.9641e-06  0:01:48 1308

  iter  continuity  x-velocity  y-velocity  z-velocity      energy     time/iter
   703  3.5237e-06  3.3913e-04  2.4405e-06  2.1028e-01  3.4294e-06  0:01:26 1307
   704  3.0108e-06  3.3733e-04  2.3664e-06  2.1089e-01  2.9084e-06  0:01:09 1306
   705  2.5390e-06  3.3550e-04  2.2855e-06  2.1098e-01  2.4250e-06  0:00:55 1305
   706  2.1404e-06  3.3365e-04  2.2021e-06  2.1049e-01  2.0138e-06  0:00:44 1304
   707  1.8682e-06  3.3178e-04  2.1218e-06  2.0964e-01  1.7335e-06  0:00:35 1303
   708  1.7886e-06  3.2991e-04  2.0468e-06  2.0901e-01  1.6581e-06  0:00:28 1302
   709  1.9197e-06  3.2805e-04  1.9762e-06  2.0883e-01  1.8068e-06  0:00:22 1301
   710  2.2067e-06  3.2622e-04  1.9224e-06  2.0974e-01  2.1164e-06  0:00:18 1300
   711  2.5754e-06  3.2441e-04  1.8867e-06  2.1111e-01  2.5043e-06  0:00:14 1299
   712  2.9743e-06  3.2262e-04  1.8658e-06  2.1272e-01  2.9179e-06  0:00:11 1298
   713  3.3732e-06  3.2085e-04  1.8592e-06  2.1435e-01  3.3274e-06  0:00:09 1297

  iter  continuity  x-velocity  y-velocity  z-velocity      energy     time/iter
   714  3.7501e-06  3.1909e-04  1.8639e-06  2.1597e-01  3.7121e-06  0:00:07 1296
   715  4.0916e-06  3.1735e-04  1.8773e-06  2.1759e-01  4.0596e-06  0:00:06 1295
   716  4.3895e-06  3.1563e-04  1.8977e-06  2.1918e-01  4.3621e-06  0:00:05 1294
   717  4.6381e-06  3.1393e-04  1.9220e-06  2.2075e-01  4.6143e-06  0:00:04 1293
   718  4.8349e-06  3.1225e-04  1.9490e-06  2.2234e-01  4.8141e-06  0:00:03 1292
   719  4.9753e-06  3.1059e-04  1.9783e-06  2.2412e-01  4.9570e-06  0:00:02 1291
   720  5.0602e-06  3.0895e-04  2.0054e-06  2.2597e-01  5.0440e-06  0:00:02 1290
   721  5.0883e-06  3.0734e-04  2.0287e-06  2.2774e-01  5.0737e-06  0:04:19 1289
   722  5.0593e-06  3.0574e-04  2.0475e-06  2.2976e-01  5.0462e-06  0:03:27 1288
   723  4.9751e-06  3.0417e-04  2.0595e-06  2.3192e-01  4.9634e-06  0:02:46 1287
   724  4.8386e-06  3.0263e-04  2.0635e-06  2.3411e-01  4.8281e-06  0:02:12 1286

  iter  continuity  x-velocity  y-velocity  z-velocity      energy     time/iter
   725  4.6551e-06  3.0111e-04  2.0589e-06  2.3509e-01  4.6459e-06  0:01:46 1285
   726  4.4287e-06  2.9962e-04  2.0484e-06  2.3534e-01  4.4205e-06  0:01:25 1284
   727  4.1629e-06  2.9817e-04  2.0349e-06  2.3534e-01  4.1548e-06  0:01:08 1283
   728  3.8638e-06  2.9673e-04  2.0140e-06  2.3531e-01  3.8552e-06  0:00:54 1282
   729  3.5370e-06  2.9530e-04  1.9845e-06  2.3490e-01  3.5282e-06  0:00:43 1281
   730  3.1885e-06  2.9389e-04  1.9493e-06  2.3393e-01  3.1796e-06  0:00:35 1280
   731  2.8260e-06  2.9251e-04  1.9102e-06  2.3263e-01  2.8170e-06  0:00:28 1279
   732  2.4613e-06  2.9115e-04  1.8687e-06  2.3130e-01  2.4514e-06  0:00:22 1278
   733  2.1101e-06  2.8981e-04  1.8271e-06  2.3012e-01  2.0978e-06  0:00:18 1277
   734  1.7947e-06  2.8850e-04  1.7820e-06  2.2911e-01  1.7797e-06  0:00:14 1276
   735  1.5459e-06  2.8722e-04  1.7363e-06  2.2820e-01  1.5287e-06  0:00:11 1275

  iter  continuity  x-velocity  y-velocity  z-velocity      energy     time/iter
   736  1.4033e-06  2.8596e-04  1.6940e-06  2.2733e-01  1.3844e-06  0:00:09 1274
   737  1.3961e-06  2.8473e-04  1.6569e-06  2.2637e-01  1.3769e-06  0:00:07 1273
   738  1.5166e-06  2.8352e-04  1.6257e-06  2.2533e-01  1.4992e-06  0:00:06 1272
   739  1.7252e-06  2.8234e-04  1.6016e-06  2.2420e-01  1.7102e-06  0:00:05 1271
   740  1.9798e-06  2.8118e-04  1.5849e-06  2.2270e-01  1.9666e-06  0:00:04 1270
   741  2.2501e-06  2.8004e-04  1.5760e-06  2.2114e-01  2.2385e-06  0:00:03 1269
   742  2.5150e-06  2.7891e-04  1.5748e-06  2.1952e-01  2.5036e-06  0:04:16 1268
   743  2.7646e-06  2.7777e-04  1.5777e-06  2.1817e-01  2.7520e-06  0:03:25 1267
   744  2.9872e-06  2.7662e-04  1.5846e-06  2.1739e-01  2.9727e-06  0:02:44 1266
   745  3.1794e-06  2.7550e-04  1.5949e-06  2.1658e-01  3.1610e-06  0:02:11 1265
   746  3.3613e-06  2.7449e-04  1.6088e-06  2.1516e-01  3.3419e-06  0:01:45 1264

  iter  continuity  x-velocity  y-velocity  z-velocity      energy     time/iter
   747  3.4984e-06  2.7351e-04  1.6522e-06  2.1414e-01  3.4781e-06  0:01:24 1263
   748  3.5917e-06  2.7255e-04  1.6979e-06  2.1407e-01  3.5708e-06  0:01:07 1262
   749  3.6500e-06  2.7161e-04  1.7304e-06  2.1500e-01  3.6284e-06  0:00:53 1261
   750  3.6964e-06  2.7070e-04  1.7527e-06  2.1687e-01  3.6751e-06  0:00:43 1260
   751  3.8106e-06  2.6984e-04  1.7883e-06  2.2038e-01  3.7894e-06  0:00:34 1259
   752  3.9391e-06  2.6905e-04  1.8607e-06  2.3132e-01  3.9180e-06  0:00:27 1258
   753  4.0798e-06  2.6835e-04  1.9737e-06  2.5629e-01  4.0578e-06  0:00:22 1257
   754  4.1602e-06  2.6769e-04  2.1062e-06  2.9182e-01  4.1361e-06  0:00:17 1256
   755  4.0823e-06  2.6696e-04  2.2070e-06  3.2582e-01  4.0579e-06  0:00:14 1255
   756  4.0231e-06  2.6632e-04  2.2242e-06  3.3867e-01  4.0001e-06  0:00:11 1254
   757  3.7343e-06  2.6563e-04  2.2156e-06  3.3609e-01  3.7137e-06  0:00:09 1253

  iter  continuity  x-velocity  y-velocity  z-velocity      energy     time/iter
   758  3.2702e-06  2.6481e-04  2.1421e-06  3.2734e-01  3.2514e-06  0:00:07 1252
   759  2.6735e-06  2.6389e-04  1.9934e-06  3.2209e-01  2.6528e-06  0:00:06 1251
   760  2.2405e-06  2.6301e-04  1.8379e-06  3.2530e-01  2.2170e-06  0:00:05 1250
   761  1.9308e-06  2.6214e-04  1.7430e-06  3.3184e-01  1.9024e-06  0:00:04 1249
   762  1.6881e-06  2.6130e-04  1.6955e-06  3.3681e-01  1.6517e-06  0:00:03 1248
   763  1.5105e-06  2.6054e-04  1.6536e-06  3.3823e-01  1.4641e-06  0:00:02 1247
   764  1.4355e-06  2.5985e-04  1.6073e-06  3.3625e-01  1.3779e-06  0:00:02 1246
   765  1.4322e-06  2.5921e-04  1.5679e-06  3.3162e-01  1.3682e-06  0:00:01 1245
   766  1.4928e-06  2.5858e-04  1.5365e-06  3.2484e-01  1.4272e-06  0:04:10 1244
   767  1.6006e-06  2.5794e-04  1.5095e-06  3.1686e-01  1.5371e-06  0:03:20 1243
   768  1.7443e-06  2.5728e-04  1.4869e-06  3.0882e-01  1.6852e-06  0:02:40 1242

  iter  continuity  x-velocity  y-velocity  z-velocity      energy     time/iter
   769  1.9114e-06  2.5662e-04  1.4681e-06  3.0158e-01  1.8576e-06  0:02:08 1241
   770  2.0890e-06  2.5596e-04  1.4572e-06  2.9562e-01  2.0405e-06  0:01:42 1240
   771  2.2657e-06  2.5530e-04  1.4504e-06  2.9084e-01  2.2220e-06  0:01:22 1239
   772  2.4360e-06  2.5464e-04  1.4505e-06  2.8733e-01  2.3960e-06  0:01:05 1238
   773  2.6126e-06  2.5402e-04  1.4539e-06  2.8499e-01  2.5756e-06  0:00:52 1237
   774  2.7673e-06  2.5339e-04  1.4647e-06  2.8415e-01  2.7325e-06  0:00:42 1236
   775  2.8994e-06  2.5280e-04  1.4829e-06  2.8531e-01  2.8659e-06  0:00:33 1235
   776  2.9935e-06  2.5215e-04  1.4935e-06  2.8874e-01  2.9614e-06  0:00:27 1234
   777  3.0779e-06  2.5149e-04  1.5136e-06  2.9100e-01  3.0473e-06  0:00:21 1233
   778  3.1025e-06  2.5078e-04  1.5354e-06  2.9362e-01  3.0731e-06  0:00:17 1232
   779  3.0930e-06  2.5000e-04  1.5397e-06  2.9751e-01  3.0641e-06  0:00:14 1231

  iter  continuity  x-velocity  y-velocity  z-velocity      energy     time/iter
   780  3.1008e-06  2.4928e-04  1.5303e-06  3.0163e-01  3.0722e-06  0:00:11 1230
   781  3.0813e-06  2.4858e-04  1.5258e-06  3.0727e-01  3.0522e-06  0:00:09 1229
   782  3.0346e-06  2.4792e-04  1.5089e-06  3.1391e-01  3.0041e-06  0:00:07 1228
   783  2.9524e-06  2.4727e-04  1.4982e-06  3.2037e-01  2.9193e-06  0:00:06 1227
   784  2.8416e-06  2.4658e-04  1.4807e-06  3.2647e-01  2.8057e-06  0:00:04 1226
   785  2.7046e-06  2.4585e-04  1.4327e-06  3.3403e-01  2.6655e-06  0:00:04 1225
   786  2.5978e-06  2.4506e-04  1.4324e-06  3.4522e-01  2.5568e-06  0:00:03 1224
   787  2.5294e-06  2.4422e-04  1.4304e-06  3.6105e-01  2.4877e-06  0:00:02 1223
   788  2.5232e-06  2.4344e-04  1.4903e-06  3.8298e-01  2.4806e-06  0:00:02 1222
   789  2.5806e-06  2.4264e-04  1.5596e-06  4.0585e-01  2.5392e-06  0:04:06 1221
   790  2.6304e-06  2.4185e-04  1.5842e-06  4.2432e-01  2.5921e-06  0:03:16 1220

  iter  continuity  x-velocity  y-velocity  z-velocity      energy     time/iter
   791  2.6859e-06  2.4109e-04  1.6158e-06  4.3879e-01  2.6514e-06  0:02:37 1219
   792  2.7470e-06  2.4039e-04  1.6716e-06  4.4643e-01  2.7163e-06  0:02:05 1218
   793  2.7297e-06  2.3969e-04  1.7344e-06  4.4831e-01  2.7016e-06  0:01:40 1217
   794  2.6050e-06  2.3895e-04  1.7496e-06  4.4519e-01  2.5789e-06  0:01:20 1216
   795  2.5291e-06  2.3820e-04  1.7363e-06  4.3478e-01  2.5054e-06  0:01:04 1215
   796  2.4602e-06  2.3743e-04  1.7223e-06  4.1895e-01  2.4386e-06  0:00:51 1214
   797  2.3446e-06  2.3663e-04  1.6934e-06  4.0351e-01  2.3233e-06  0:00:41 1213
   798  2.2185e-06  2.3579e-04  1.6407e-06  3.9484e-01  2.1960e-06  0:00:33 1212
   799  2.0152e-06  2.3487e-04  1.5648e-06  3.9777e-01  1.9894e-06  0:00:26 1211
   800  1.8595e-06  2.3390e-04  1.4652e-06  4.0923e-01  1.8298e-06  0:00:21 1210
   801  1.8150e-06  2.3291e-04  1.3656e-06  4.2037e-01  1.7832e-06  0:00:17 1209

  iter  continuity  x-velocity  y-velocity  z-velocity      energy     time/iter
   802  1.8523e-06  2.3193e-04  1.2942e-06  4.2534e-01  1.8198e-06  0:00:13 1208
   803  1.9151e-06  2.3095e-04  1.2567e-06  4.2253e-01  1.8832e-06  0:00:11 1207
   804  1.9772e-06  2.2998e-04  1.2392e-06  4.1387e-01  1.9460e-06  0:00:09 1206
   805  2.0274e-06  2.2902e-04  1.2296e-06  4.0102e-01  1.9970e-06  0:00:07 1205
   806  2.0618e-06  2.2806e-04  1.2238e-06  3.8704e-01  2.0321e-06  0:00:05 1204
   807  2.0821e-06  2.2711e-04  1.2202e-06  3.7345e-01  2.0528e-06  0:00:04 1203
   808  2.0855e-06  2.2616e-04  1.2178e-06  3.6105e-01  2.0564e-06  0:04:04 1202
   809  2.0701e-06  2.2521e-04  1.2177e-06  3.5067e-01  2.0408e-06  0:03:15 1201
   810  2.0344e-06  2.2425e-04  1.2163e-06  3.4265e-01  2.0048e-06  0:02:36 1200
   811  1.9802e-06  2.2330e-04  1.2138e-06  3.3704e-01  1.9502e-06  0:02:05 1199
   812  1.9122e-06  2.2235e-04  1.2096e-06  3.3317e-01  1.8813e-06  0:01:40 1198

  iter  continuity  x-velocity  y-velocity  z-velocity      energy     time/iter
   813  1.8353e-06  2.2141e-04  1.2025e-06  3.3026e-01  1.8031e-06  0:01:20 1197
   814  1.7477e-06  2.2046e-04  1.1946e-06  3.2819e-01  1.7135e-06  0:01:04 1196
   815  1.6507e-06  2.1951e-04  1.1854e-06  3.2624e-01  1.6143e-06  0:00:51 1195
   816  1.5480e-06  2.1856e-04  1.1744e-06  3.2362e-01  1.5092e-06  0:00:41 1194
   817  1.4437e-06  2.1761e-04  1.1617e-06  3.2149e-01  1.4025e-06  0:00:32 1193
   818  1.3453e-06  2.1666e-04  1.1488e-06  3.1984e-01  1.3018e-06  0:00:26 1192
   819  1.2577e-06  2.1572e-04  1.1369e-06  3.1858e-01  1.2120e-06  0:00:21 1191
   820  1.1862e-06  2.1478e-04  1.1267e-06  3.1786e-01  1.1392e-06  0:00:17 1190
   821  1.1398e-06  2.1385e-04  1.1180e-06  3.1616e-01  1.0925e-06  0:00:13 1189
   822  1.1298e-06  2.1292e-04  1.1124e-06  3.1356e-01  1.0840e-06  0:00:11 1188
   823  1.1690e-06  2.1201e-04  1.1127e-06  3.1135e-01  1.1266e-06  0:00:08 1187

  iter  continuity  x-velocity  y-velocity  z-velocity      energy     time/iter
   824  1.2725e-06  2.1113e-04  1.1227e-06  3.1035e-01  1.2355e-06  0:00:07 1186
   825  1.4571e-06  2.1028e-04  1.1491e-06  3.1154e-01  1.4272e-06  0:00:05 1185
   826  1.7396e-06  2.0952e-04  1.2016e-06  3.1630e-01  1.7165e-06  0:00:04 1184
[...]
  1800  3.1353e-07  1.0281e-05  2.3327e-07  3.8585e-01  3.1263e-07  0:00:01  210
  1801  3.0882e-07  1.0205e-05  2.2992e-07  3.8632e-01  3.0790e-07  0:00:01  209
  1802  3.0555e-07  1.0138e-05  2.2546e-07  3.8770e-01  3.0463e-07  0:00:01  208

  iter  continuity  x-velocity  y-velocity  z-velocity      energy     time/iter
  1803  3.0741e-07  1.0003e-05  2.2625e-07  3.9016e-01  3.0644e-07  0:00:01  207
  1804  3.1075e-07  9.9332e-06  2.3052e-07  3.9350e-01  3.0980e-07  0:00:00  206
  1805  3.1176e-07  9.9262e-06  2.3483e-07  3.9735e-01  3.1084e-07  0:00:00  205
  1806  3.1080e-07  9.9711e-06  2.3766e-07  3.9973e-01  3.0992e-07  0:00:00  204
  1807  3.0807e-07  1.0051e-05  2.3866e-07  4.0375e-01  3.0722e-07  0:00:41  203
  1808  3.0370e-07  1.0133e-05  2.3768e-07  4.0908e-01  3.0286e-07  0:00:33  202
  1809  3.0330e-07  1.0145e-05  2.4298e-07  4.1548e-01  3.0249e-07  0:00:26  201
  1810  3.0629e-07  1.0138e-05  2.5688e-07  4.2305e-01  3.0551e-07  0:00:21  200
  1811  2.9096e-07  9.9888e-06  2.5668e-07  4.3149e-01  2.9010e-07  0:00:16  199
  1812  2.8152e-07  9.8070e-06  2.4055e-07  4.3996e-01  2.8060e-07  0:00:13  198
  1813  2.7757e-07  9.6495e-06  2.2387e-07  4.4829e-01  2.7663e-07  0:00:10  197

  iter  continuity  x-velocity  y-velocity  z-velocity      energy     time/iter
  1814  2.7600e-07  9.5122e-06  2.1514e-07  4.5674e-01  2.7504e-07  0:00:08  196
  1815  2.7459e-07  9.3976e-06  2.1099e-07  4.6552e-01  2.7358e-07  0:00:07  195
  1816  2.7295e-07  9.3079e-06  2.0953e-07  4.7475e-01  2.7191e-07  0:00:05  194
  1817  2.7146e-07  9.2442e-06  2.0893e-07  4.8441e-01  2.7041e-07  0:00:04  193
  1818  2.7016e-07  9.2086e-06  2.0924e-07  4.9436e-01  2.6912e-07  0:00:03  192
  1819  2.6892e-07  9.2058e-06  2.1075e-07  5.0441e-01  2.6791e-07  0:00:03  191
  1820  2.6783e-07  9.2414e-06  2.1237e-07  5.1411e-01  2.6685e-07  0:00:02  190
  1821  2.6676e-07  9.3188e-06  2.1375e-07  5.2291e-01  2.6580e-07  0:00:02  189
  1822  2.6280e-07  9.3773e-06  2.1301e-07  5.3016e-01  2.6186e-07  0:00:01  188
  1823  2.5407e-07  9.2612e-06  2.0709e-07  5.3652e-01  2.5311e-07  0:00:01  187
  1824  2.4973e-07  9.1688e-06  1.9957e-07  5.4106e-01  2.4879e-07  0:00:01  186

  iter  continuity  x-velocity  y-velocity  z-velocity      energy     time/iter
  1825  2.4649e-07  9.0869e-06  1.9390e-07  5.4271e-01  2.4558e-07  0:00:01  185
  1826  2.4368e-07  9.0090e-06  1.9034e-07  5.3612e-01  2.4279e-07  0:00:01  184
  1827  2.4124e-07  8.9303e-06  1.8868e-07  5.0744e-01  2.4035e-07  0:00:00  183
  1828  2.4013e-07  8.8605e-06  1.8882e-07  4.7455e-01  2.3925e-07  0:00:00  182
  1829  2.4235e-07  8.8366e-06  1.9267e-07  4.4686e-01  2.4150e-07  0:00:36  181
  1830  2.3723e-07  8.7966e-06  1.9306e-07  4.2506e-01  2.3638e-07  0:00:29  180
  1831  2.3271e-07  8.7375e-06  1.8961e-07  4.0746e-01  2.3185e-07  0:00:23  179
  1832  2.3545e-07  8.7451e-06  1.9047e-07  3.9495e-01  2.3463e-07  0:00:18  178
  1833  2.4342e-07  8.8209e-06  1.9830e-07  3.8684e-01  2.4270e-07  0:00:15  177
  1834  2.5208e-07  8.9571e-06  2.1542e-07  3.8232e-01  2.5151e-07  0:00:12  176
  1835  2.4704e-07  9.0402e-06  2.3184e-07  3.8016e-01  2.4659e-07  0:00:09  175

  iter  continuity  x-velocity  y-velocity  z-velocity      energy     time/iter
  1836  2.3051e-07  8.9129e-06  2.2873e-07  3.7989e-01  2.2998e-07  0:00:07  174
  1837  2.2166e-07  8.7318e-06  2.0656e-07  3.8006e-01  2.2097e-07  0:00:06  173
  1838  2.1736e-07  8.6018e-06  1.8685e-07  3.7884e-01  2.1653e-07  0:00:05  172
  1839  2.1448e-07  8.5056e-06  1.7911e-07  3.7524e-01  2.1357e-07  0:00:04  171
  1840  2.4156e-07  8.7068e-06  1.9976e-07  3.6955e-01  2.4092e-07  0:00:03  170
  1841  2.6328e-07  9.2197e-06  2.2474e-07  3.6296e-01  2.6295e-07  0:00:02  169
  1842  2.6063e-07  9.6550e-06  2.4524e-07  3.5669e-01  2.6045e-07  0:00:02  168
  1843  3.0687e-07  9.5472e-06  3.0537e-07  3.5196e-01  3.0645e-07  0:00:01  167
  1844  2.8759e-07  9.3980e-06  3.2229e-07  3.5115e-01  2.8715e-07  0:00:01  166
  1845  2.4212e-07  9.0266e-06  2.9203e-07  3.5295e-01  2.4151e-07  0:00:01  165
  1846  2.2129e-07  8.7298e-06  2.3720e-07  3.5466e-01  2.2046e-07  0:00:01  164

  iter  continuity  x-velocity  y-velocity  z-velocity      energy     time/iter
  1847  2.0840e-07  8.4950e-06  1.9892e-07  3.5536e-01  2.0739e-07  0:00:01  163
  1848  2.0127e-07  8.3008e-06  1.8018e-07  3.5469e-01  2.0019e-07  0:00:00  162
  1849  1.9662e-07  8.1370e-06  1.7170e-07  3.5256e-01  1.9557e-07  0:00:00  161
  1850  1.9431e-07  7.9956e-06  1.6661e-07  3.4922e-01  1.9333e-07  0:00:00  160
  1851  1.9344e-07  7.8703e-06  1.6310e-07  3.4506e-01  1.9253e-07  0:00:00  159
  1852  1.9225e-07  7.7578e-06  1.6145e-07  3.4059e-01  1.9136e-07  0:00:32  158
  1853  1.9098e-07  7.6588e-06  1.6056e-07  3.3626e-01  1.9008e-07  0:00:25  157
  1854  1.9022e-07  7.5743e-06  1.5893e-07  3.3234e-01  1.8932e-07  0:00:20  156
  1855  1.8936e-07  7.5027e-06  1.5738e-07  3.2901e-01  1.8847e-07  0:00:16  155
  1856  1.8866e-07  7.4427e-06  1.5634e-07  3.2630e-01  1.8781e-07  0:00:13  154
  1857  1.8801e-07  7.3910e-06  1.5579e-07  3.2417e-01  1.8720e-07  0:00:10  153

  iter  continuity  x-velocity  y-velocity  z-velocity      energy     time/iter
  1858  1.8730e-07  7.3455e-06  1.5563e-07  3.2257e-01  1.8651e-07  0:00:08  152
  1859  1.8663e-07  7.3088e-06  1.5538e-07  3.2143e-01  1.8585e-07  0:00:06  151
  1860  1.8609e-07  7.2812e-06  1.5494e-07  3.2115e-01  1.8532e-07  0:00:05  150
  1861  1.8569e-07  7.2621e-06  1.5459e-07  3.2133e-01  1.8494e-07  0:00:04  149
  1862  1.8540e-07  7.2483e-06  1.5444e-07  3.2178e-01  1.8466e-07  0:00:03  148
  1863  1.8497e-07  7.2360e-06  1.5439e-07  3.2246e-01  1.8425e-07  0:00:03  147
  1864  1.8460e-07  7.2248e-06  1.5421e-07  3.2333e-01  1.8391e-07  0:00:02  146
  1865  1.8432e-07  7.2166e-06  1.5376e-07  3.2441e-01  1.8363e-07  0:00:02  145
  1866  1.8866e-07  7.2159e-06  1.5828e-07  3.2562e-01  1.8800e-07  0:00:01  144
  1867  1.9436e-07  7.2940e-06  1.6241e-07  3.2645e-01  1.9383e-07  0:00:01  143
  1868  2.0297e-07  7.3984e-06  1.7730e-07  3.2703e-01  2.0257e-07  0:00:01  142

  iter  continuity  x-velocity  y-velocity  z-velocity      energy     time/iter
  1869  2.0204e-07  7.4521e-06  1.9014e-07  3.2741e-01  2.0173e-07  0:00:01  141
  1870  1.9107e-07  7.3681e-06  1.8937e-07  3.2806e-01  1.9072e-07  0:00:01  140
  1871  1.8446e-07  7.2452e-06  1.7549e-07  3.2898e-01  1.8400e-07  0:00:00  139
  1872  1.8247e-07  7.1528e-06  1.5940e-07  3.3019e-01  1.8188e-07  0:00:00  138
  1873  1.8185e-07  7.0837e-06  1.5170e-07  3.3129e-01  1.8115e-07  0:00:28  137
  1874  1.8199e-07  7.0296e-06  1.5028e-07  3.3221e-01  1.8123e-07  0:00:22  136
  1875  1.8256e-07  6.9869e-06  1.5065e-07  3.3294e-01  1.8176e-07  0:00:17  135
  1876  1.8324e-07  6.9545e-06  1.5089e-07  3.3357e-01  1.8244e-07  0:00:14  134
  1877  1.8387e-07  6.9317e-06  1.5080e-07  3.3412e-01  1.8308e-07  0:00:11  133
  1878  1.8446e-07  6.9176e-06  1.5060e-07  3.3459e-01  1.8368e-07  0:00:09  132
  1879  1.8501e-07  6.9113e-06  1.5045e-07  3.3500e-01  1.8425e-07  0:00:07  131

  iter  continuity  x-velocity  y-velocity  z-velocity      energy     time/iter
  1880  1.8556e-07  6.9123e-06  1.5045e-07  3.3532e-01  1.8481e-07  0:00:06  130
  1881  1.8624e-07  6.9217e-06  1.5066e-07  3.3550e-01  1.8549e-07  0:00:04  129
  1882  1.8743e-07  6.9444e-06  1.5130e-07  3.3545e-01  1.8670e-07  0:00:03  128
  1883  1.8845e-07  6.9643e-06  1.5225e-07  3.3514e-01  1.8773e-07  0:00:03  127
  1884  1.9180e-07  7.0116e-06  1.5538e-07  3.3424e-01  1.9116e-07  0:00:02  126
  1885  1.9986e-07  7.1523e-06  1.6340e-07  3.3195e-01  1.9941e-07  0:00:02  125
  1886  2.0122e-07  7.2785e-06  1.6769e-07  3.2902e-01  2.0088e-07  0:00:01  124
  1887  1.9831e-07  7.2706e-06  1.7019e-07  3.2622e-01  1.9798e-07  0:00:01  123
  1888  1.9984e-07  7.1902e-06  1.7565e-07  3.2397e-01  1.9947e-07  0:00:01  122
  1889  1.9973e-07  7.1264e-06  1.7900e-07  3.2238e-01  1.9932e-07  0:00:01  121
  1890  1.9524e-07  7.0765e-06  1.7511e-07  3.2111e-01  1.9476e-07  0:00:25  120

  iter  continuity  x-velocity  y-velocity  z-velocity      energy     time/iter
  1891  1.9115e-07  7.0316e-06  1.6613e-07  3.1979e-01  1.9058e-07  0:00:19  119
  1892  1.9214e-07  7.0187e-06  1.5868e-07  3.1801e-01  1.9150e-07  0:00:15  118
  1893  2.0148e-07  7.1016e-06  1.6150e-07  3.1529e-01  2.0084e-07  0:00:12  117
  1894  2.1711e-07  7.3028e-06  1.7977e-07  3.1146e-01  2.1649e-07  0:00:10  116
  1895  2.3912e-07  7.5425e-06  2.1676e-07  3.0692e-01  2.3842e-07  0:00:08  115
  1896  2.2490e-07  7.4819e-06  2.3172e-07  3.0265e-01  2.2409e-07  0:00:06  114
  1897  2.1562e-07  7.3455e-06  2.2147e-07  2.9874e-01  2.1481e-07  0:00:05  113
  1898  2.0913e-07  7.2512e-06  1.9953e-07  2.9462e-01  2.0839e-07  0:00:04  112
  1899  2.0263e-07  7.1460e-06  1.8069e-07  2.9007e-01  2.0194e-07  0:00:03  111
  1900  2.0004e-07  7.0535e-06  1.6793e-07  2.8486e-01  1.9940e-07  0:00:02  110
  1901  2.0167e-07  7.0274e-06  1.6391e-07  2.7881e-01  2.0105e-07  0:00:02  109

  iter  continuity  x-velocity  y-velocity  z-velocity      energy     time/iter
  1902  2.0887e-07  7.1022e-06  1.7027e-07  2.7202e-01  2.0829e-07  0:00:02  108
  1903  2.2198e-07  7.3870e-06  1.8314e-07  2.6507e-01  2.2153e-07  0:00:01  107
  1904  2.3452e-07  7.8598e-06  2.0163e-07  2.5863e-01  2.3424e-07  0:00:01  106
  1905  2.1564e-07  7.5673e-06  2.0541e-07  2.5331e-01  2.1500e-07  0:00:01  105
  1906  2.1849e-07  7.2622e-06  2.0128e-07  2.4746e-01  2.1771e-07  0:00:01  104
  1907  2.2878e-07  7.1770e-06  2.0452e-07  2.4022e-01  2.2811e-07  0:00:00  103
  1908  2.3808e-07  7.3472e-06  2.1428e-07  2.3125e-01  2.3754e-07  0:00:00  102
  1909  2.3794e-07  7.6422e-06  2.1970e-07  2.2104e-01  2.3745e-07  0:00:00  101
  1910  2.2829e-07  7.8682e-06  2.1357e-07  2.1065e-01  2.2777e-07  0:00:00  100
  1911  2.1620e-07  7.9355e-06  1.9706e-07  2.0106e-01  2.1559e-07  0:00:00   99
  1912  2.0727e-07  7.8676e-06  1.7766e-07  1.9281e-01  2.0658e-07  0:00:00   98

  iter  continuity  x-velocity  y-velocity  z-velocity      energy     time/iter
  1913  2.0152e-07  7.7238e-06  1.6356e-07  1.8596e-01  2.0079e-07  0:00:20   97
  1914  1.9791e-07  7.5509e-06  1.5562e-07  1.8026e-01  1.9719e-07  0:00:15   96
  1915  1.9563e-07  7.3754e-06  1.5128e-07  1.7541e-01  1.9492e-07  0:00:12   95
  1916  1.9368e-07  7.2007e-06  1.4788e-07  1.7112e-01  1.9293e-07  0:00:10   94
  1917  1.9229e-07  7.0426e-06  1.4598e-07  1.6712e-01  1.9148e-07  0:00:08   93
  1918  1.8872e-07  6.9288e-06  1.4570e-07  1.6327e-01  1.8796e-07  0:00:06   92
  1919  1.8823e-07  6.8468e-06  1.4477e-07  1.5972e-01  1.8753e-07  0:00:05   91
  1920  1.8664e-07  6.7680e-06  1.4555e-07  1.5649e-01  1.8598e-07  0:00:04   90
  1921  1.8401e-07  6.6510e-06  1.4525e-07  1.5350e-01  1.8337e-07  0:00:03   89
  1922  1.8234e-07  6.5200e-06  1.4354e-07  1.5049e-01  1.8171e-07  0:00:02   88
  1923  1.8110e-07  6.3915e-06  1.4150e-07  1.4735e-01  1.8047e-07  0:00:02   87

  iter  continuity  x-velocity  y-velocity  z-velocity      energy     time/iter
  1924  1.8020e-07  6.2676e-06  1.3951e-07  1.4424e-01  1.7957e-07  0:00:01   86
  1925  1.7959e-07  6.1541e-06  1.3792e-07  1.4130e-01  1.7898e-07  0:00:01   85
  1926  1.7902e-07  6.0483e-06  1.3690e-07  1.3855e-01  1.7842e-07  0:00:01   84
  1927  1.7836e-07  5.9494e-06  1.3628e-07  1.3607e-01  1.7779e-07  0:00:01   83
  1928  1.7761e-07  5.8572e-06  1.3586e-07  1.3388e-01  1.7704e-07  0:00:01   82
  1929  1.7677e-07  5.7714e-06  1.3551e-07  1.3201e-01  1.7621e-07  0:00:00   81
  1930  1.7591e-07  5.6916e-06  1.3515e-07  1.3045e-01  1.7536e-07  0:00:00   80
  1931  1.7507e-07  5.6174e-06  1.3478e-07  1.2904e-01  1.7452e-07  0:00:00   79
  1932  1.7426e-07  5.5486e-06  1.3442e-07  1.2772e-01  1.7371e-07  0:00:00   78
  1933  1.7348e-07  5.4850e-06  1.3407e-07  1.2645e-01  1.7294e-07  0:00:00   77
  1934  1.7273e-07  5.4271e-06  1.3373e-07  1.2519e-01  1.7219e-07  0:00:00   76

  iter  continuity  x-velocity  y-velocity  z-velocity      energy     time/iter
  1935  1.7203e-07  5.3755e-06  1.3340e-07  1.2394e-01  1.7149e-07  0:00:00   75
  1936  1.7139e-07  5.3308e-06  1.3312e-07  1.2267e-01  1.7085e-07  0:00:15   74
  1937  1.7036e-07  5.2825e-06  1.3260e-07  1.2140e-01  1.6981e-07  0:00:12   73
  1938  1.7099e-07  5.2202e-06  1.3412e-07  1.2017e-01  1.7044e-07  0:00:09   72
  1939  1.7366e-07  5.2144e-06  1.3651e-07  1.1907e-01  1.7317e-07  0:00:07   71
  1940  1.7574e-07  5.2519e-06  1.4183e-07  1.1812e-01  1.7534e-07  0:00:06   70
  1941  1.7955e-07  5.3059e-06  1.5235e-07  1.1750e-01  1.7923e-07  0:00:05   69
  1942  1.7668e-07  5.2959e-06  1.5858e-07  1.1786e-01  1.7642e-07  0:00:04   68
  1943  1.7005e-07  5.1935e-06  1.5550e-07  1.1885e-01  1.6978e-07  0:00:03   67
  1944  1.6588e-07  5.0678e-06  1.4446e-07  1.1958e-01  1.6556e-07  0:00:02   66
  1945  1.6373e-07  4.9621e-06  1.3396e-07  1.1951e-01  1.6332e-07  0:00:02   65

  iter  continuity  x-velocity  y-velocity  z-velocity      energy     time/iter
  1946  1.6189e-07  4.8720e-06  1.2904e-07  1.1864e-01  1.6141e-07  0:00:01   64
  1947  1.6045e-07  4.7917e-06  1.2740e-07  1.1712e-01  1.5993e-07  0:00:01   63
  1948  1.5926e-07  4.7225e-06  1.2678e-07  1.1516e-01  1.5871e-07  0:00:01   62
  1949  1.5815e-07  4.6632e-06  1.2618e-07  1.1297e-01  1.5759e-07  0:00:01   61
  1950  1.5707e-07  4.6132e-06  1.2545e-07  1.1078e-01  1.5650e-07  0:00:01   60
  1951  1.5598e-07  4.5717e-06  1.2467e-07  1.0873e-01  1.5541e-07  0:00:00   59
  1952  1.5487e-07  4.5381e-06  1.2396e-07  1.0691e-01  1.5431e-07  0:00:00   58
  1953  1.5375e-07  4.5114e-06  1.2332e-07  1.0534e-01  1.5320e-07  0:00:00   57
  1954  1.5263e-07  4.4912e-06  1.2272e-07  1.0402e-01  1.5207e-07  0:00:00   56
  1955  1.5150e-07  4.4773e-06  1.2216e-07  1.0290e-01  1.5095e-07  0:00:00   55
  1956  1.5039e-07  4.4693e-06  1.2162e-07  1.0194e-01  1.4984e-07  0:00:00   54

  iter  continuity  x-velocity  y-velocity  z-velocity      energy     time/iter
  1957  1.4802e-07  4.4213e-06  1.2041e-07  1.0109e-01  1.4746e-07  0:00:00   53
  1958  1.4629e-07  4.3676e-06  1.1870e-07  1.0027e-01  1.4574e-07  0:00:10   52
  1959  1.4487e-07  4.3188e-06  1.1713e-07  9.9412e-02  1.4432e-07  0:00:08   51
  1960  1.4359e-07  4.2729e-06  1.1593e-07  9.8526e-02  1.4306e-07  0:00:06   50
  1961  1.4242e-07  4.2291e-06  1.1493e-07  9.7623e-02  1.4190e-07  0:00:05   49
  1962  1.4132e-07  4.1868e-06  1.1398e-07  9.6733e-02  1.4080e-07  0:00:04   48
  1963  1.4025e-07  4.1460e-06  1.1305e-07  9.5877e-02  1.3973e-07  0:00:03   47
  1964  1.3921e-07  4.1067e-06  1.1213e-07  9.5057e-02  1.3869e-07  0:00:02   46
  1965  1.3820e-07  4.0693e-06  1.1126e-07  9.4267e-02  1.3767e-07  0:00:02   45
  1966  1.3723e-07  4.0343e-06  1.1044e-07  9.3512e-02  1.3668e-07  0:00:01   44
  1967  1.3629e-07  4.0022e-06  1.0969e-07  9.2745e-02  1.3573e-07  0:00:01   43

  iter  continuity  x-velocity  y-velocity  z-velocity      energy     time/iter
  1968  1.3541e-07  3.9737e-06  1.0900e-07  9.1952e-02  1.3484e-07  0:00:01   42
  1969  1.3459e-07  3.9498e-06  1.0840e-07  9.1114e-02  1.3402e-07  0:00:01   41
  1970  1.3384e-07  3.9315e-06  1.0798e-07  9.0223e-02  1.3326e-07  0:00:01   40
  1971  1.3320e-07  3.9201e-06  1.0754e-07  8.9275e-02  1.3262e-07  0:00:00   39
  1972  1.3189e-07  3.8949e-06  1.0677e-07  8.8276e-02  1.3130e-07  0:00:00   38
  1973  1.3275e-07  3.8530e-06  1.0795e-07  8.7279e-02  1.3216e-07  0:00:00   37
  1974  1.3601e-07  3.8744e-06  1.1026e-07  8.6485e-02  1.3549e-07  0:00:00   36
  1975  1.3831e-07  3.9578e-06  1.1494e-07  8.6069e-02  1.3789e-07  0:00:00   35
  1976  1.4413e-07  4.0627e-06  1.2674e-07  8.6215e-02  1.4381e-07  0:00:00   34
  1977  1.4307e-07  4.1058e-06  1.3516e-07  8.7671e-02  1.4283e-07  0:00:00   33
  1978  1.3574e-07  4.0268e-06  1.3422e-07  9.0038e-02  1.3550e-07  0:00:00   32

  iter  continuity  x-velocity  y-velocity  z-velocity      energy     time/iter
  1979  1.3040e-07  3.8996e-06  1.2390e-07  9.2021e-02  1.3010e-07  0:00:00   31
  1980  1.2765e-07  3.7905e-06  1.1194e-07  9.2782e-02  1.2727e-07  0:00:00   30
  1981  1.2585e-07  3.7053e-06  1.0503e-07  9.2257e-02  1.2538e-07  0:00:06   29
  1982  1.2477e-07  3.6367e-06  1.0262e-07  9.0664e-02  1.2422e-07  0:00:05   28
  1983  1.2420e-07  3.5816e-06  1.0195e-07  8.8297e-02  1.2361e-07  0:00:03   27
  1984  1.2391e-07  3.5387e-06  1.0159e-07  8.5478e-02  1.2331e-07  0:00:03   26
  1985  1.2374e-07  3.5072e-06  1.0127e-07  8.2509e-02  1.2315e-07  0:00:02   25
  1986  1.2361e-07  3.4865e-06  1.0099e-07  7.9639e-02  1.2303e-07  0:00:02   24
  1987  1.2352e-07  3.4757e-06  1.0082e-07  7.7043e-02  1.2295e-07  0:00:01   23
  1988  1.2346e-07  3.4740e-06  1.0076e-07  7.4817e-02  1.2290e-07  0:00:01   22
  1989  1.2344e-07  3.4808e-06  1.0082e-07  7.2986e-02  1.2290e-07  0:00:01   21

  iter  continuity  x-velocity  y-velocity  z-velocity      energy     time/iter
  1990  1.2348e-07  3.4952e-06  1.0098e-07  7.1523e-02  1.2295e-07  0:00:01   20
  1991  1.2358e-07  3.5169e-06  1.0125e-07  7.0372e-02  1.2306e-07  0:00:00   19
  1992  1.2206e-07  3.4803e-06  1.0064e-07  6.9465e-02  1.2154e-07  0:00:00   18
  1993  1.2154e-07  3.4425e-06  9.9422e-08  6.8650e-02  1.2103e-07  0:00:00   17
  1994  1.2138e-07  3.4103e-06  9.8571e-08  6.7822e-02  1.2090e-07  0:00:00   16
  1995  1.2142e-07  3.3814e-06  9.8247e-08  6.6949e-02  1.2097e-07  0:00:00   15
  1996  1.2163e-07  3.3546e-06  9.8210e-08  6.6040e-02  1.2119e-07  0:00:00   14
  1997  1.2193e-07  3.3292e-06  9.8300e-08  6.5131e-02  1.2150e-07  0:00:00   13
  1998  1.2232e-07  3.3055e-06  9.8466e-08  6.4257e-02  1.2189e-07  0:00:00   12
  1999  1.2277e-07  3.2837e-06  9.8715e-08  6.3437e-02  1.2234e-07  0:00:00   11
  2000  1.2328e-07  3.2644e-06  9.9065e-08  6.2676e-02  1.2284e-07  0:00:00   10

  iter  continuity  x-velocity  y-velocity  z-velocity      energy     time/iter
  2001  1.2385e-07  3.2483e-06  9.9526e-08  6.1956e-02  1.2341e-07  0:00:00    9
  2002  1.2451e-07  3.2365e-06  1.0010e-07  6.1252e-02  1.2406e-07  0:00:00    8
  2003  1.2525e-07  3.2301e-06  1.0079e-07  6.0542e-02  1.2479e-07  0:00:01    7
  2004  1.2606e-07  3.2306e-06  1.0160e-07  5.9811e-02  1.2560e-07  0:00:01    6
  2005  1.2698e-07  3.2398e-06  1.0253e-07  5.9054e-02  1.2652e-07  0:00:01    5
  2006  1.2706e-07  3.2268e-06  1.0295e-07  5.8282e-02  1.2659e-07  0:00:00    4
  2007  1.2859e-07  3.1917e-06  1.0436e-07  5.7541e-02  1.2811e-07  0:00:00    3
  2008  1.3318e-07  3.2164e-06  1.0739e-07  5.6929e-02  1.3275e-07  0:00:00    2
  2009  1.3688e-07  3.3123e-06  1.1229e-07  5.6658e-02  1.3654e-07  0:00:00    1
  2010  1.4166e-07  3.4380e-06  1.2162e-07  5.7008e-02  1.4139e-07  0:00:00    0

Calculation complete.
(cx-gui-do cx-activate-item "Information*OK")
(cx-use-window-id 51)
(cx-set-camera-relative '(-0.350153 -1.3951 -0.635754) '(0 0 0) '(-0.141292 -0.258796 0.514017) 0 0)
(cx-gui-do cx-set-list-tree-selections "NavigationPane*Frame2*Table1*List_Tree2" (list "Results|Graphics|Contours"))
(cx-gui-do cx-set-list-tree-selections "NavigationPane*Frame2*Table1*List_Tree2" (list "Results|Graphics|Contours"))
(cx-gui-do cx-activate-item "NavigationPane*Frame2*Table1*List_Tree2")
(cx-gui-do cx-set-list-tree-selections "NavigationPane*Frame2*Table1*List_Tree2" (list "Results|Graphics|Contours"))
(cx-gui-do cx-set-list-selections "Contours*Table1*Frame3*Frame2*List2(Surfaces)" '( 3))
(cx-gui-do cx-activate-item "Contours*Table1*Frame3*Frame2*List2(Surfaces)")
(cx-gui-do cx-activate-item "Contours*PanelButtons*PushButton1(OK)")
(cx-use-window-id 51)
(cx-set-camera-relative '(-5.70734 35.6959 7.27913) '(0 0 0) '(0.0696 0.212728 -0.988038) 0 0)
(cx-gui-do cx-activate-item "Contours*PanelButtons*PushButton2(Cancel)")
(cx-use-window-id 51)
(cx-set-camera-relative '(4.24512 -5.83153 0.891873) '(0 0 0) '(0.13181 0.0560694 0.361697) 0 0)
/exit y
(cx-gui-do cx-activate-item "Question*OK")
Auto-Transcript Stop Time:  10:42:01, 20 May 2024 GMT Daylight Time 
Total Transcript Time: 15 Minute 24 Second.
