Auto-Transcript Start Time:  10:28:27, 21 May 2024 GMT Daylight Time 
Current Directory: "C:\Users\kebl7595\Desktop\CFD\Runs\Viscous\0 degrees"

              Welcome to ANSYS Fluent 2023 R1

              Copyright 1987-2023 ANSYS, Inc. All Rights Reserved.
              Unauthorized use, distribution or duplication is prohibited.
              This product is subject to U.S. laws governing export and re-export.
              For full Legal Notice, see documentation.

Build Time: Nov 28 2022 09:52:02 EST  Build Id: 10208  
 
Connected License Server List:	1055@ansyslic.eng.ox.ac.uk

*********************************************
Info: Your license enables 4-way parallel execution.
For faster simulations, please start the application with the appropriate parallel options.
*********************************************


     --------------------------------------------------------------
     This is an academic version of ANSYS FLUENT. Usage of this product
     license is limited to the terms and conditions specified in your ANSYS
     license form, additional terms section.
     --------------------------------------------------------------
Host spawning Node 0 on machine "Engs-30669" (win64).

------------------------------------------------------------------------------------
ID    Hostname    Core  O.S.         PID    Vendor                                 
------------------------------------------------------------------------------------
n0    Engs-30669  1/32  Windows-x64  40372  13th Gen Intel(R) Core(TM) i9-13900    
host  Engs-30669        Windows-x64  40800  13th Gen Intel(R) Core(TM) i9-13900    

MPI Option Selected: intel
------------------------------------------------------------------------------------

Cleanup script file is C:\\Users\\kebl7595\\Desktop\\CFD\\Runs\\Viscous\\0 degrees\\cleanup-fluent-Engs-30669-40800.bat
QA Service Message :
QA Services Agreement Enabled. This application is included in the scope of an ANSYS QA Services Agreement.
Posting ANSYS Product Improvement Program startup data
Done.

Reading journal file C:/Users/kebl7595/Desktop/CFD/Runs/Viscous/0 degrees/project1.jou...

> /file/set-batch-options no no no 

> 
define/                 parametric-study/       solve/
display/                plot/                   surface/
exit                    preferences/            switch-to-meshing-mode
file/                   print-license-usage     turbo-workflow/
mesh/                   report/                 views/
parallel/               server/

> /file/import/cgns/mesh  "./project1.cgns"Note: Rank = 0: Process affinity not being set (6).

Importing "./project1.cgns"

Opening library "C:\\PROGRA~1\\ANSYSI~1\\v231\\fluent\\fluent23.1.0\\vki\\win64\\devtools4.4.6.dll"... done.

Read    17864 nodes
   12996 hexahedral cells, zone  1
    9462 quadrilateral wall faces, zone  2.
   33972 quadrilateral interior faces, zone  3.
     282 quadrilateral interface faces, zone  4.
       6 quadrilateral wall faces, zone  5.

Building...
     mesh
     materials,
     interface,
     domains,
     zones,
	default_exterior-1
	interface-default_subface
	default_interior-1
	default_subface
	default
     parallel,
The automatic selection for flux type has changed to Rhie-Chow: momentum based.

Done.


> 
adjoint/                parallel/               server/
define/                 parametric-study/       solve/
display/                plot/                   surface/
exit                    preferences/            turbo-workflow/
file/                   print-license-usage     views/
mesh/                   report/

> /define/models/solver/density-based-implicit yes

> 
adjoint/                parallel/               server/
define/                 parametric-study/       solve/
display/                plot/                   surface/
exit                    preferences/            turbo-workflow/
file/                   print-license-usage     views/
mesh/                   report/

> /define/models/energy? yes yes invalid command [yes]
yes

> /define/models/viscous/kw-standard? yes

> 
adjoint/                parallel/               server/
define/                 parametric-study/       solve/
display/                plot/                   surface/
exit                    preferences/            turbo-workflow/
file/                   print-license-usage     views/
mesh/                   report/

> /define/materials/change-create air air air is a fluid
yes 
Density
ideal-gas no data required.

no no no no no no

> 
adjoint/                parallel/               server/
define/                 parametric-study/       solve/
display/                plot/                   surface/
exit                    preferences/            turbo-workflow/
file/                   print-license-usage     views/
mesh/                   report/

> /mesh/modify-zones/sep-face-zone-angle 2 90 yes

 4332 faces in contiguous region 0
 228 faces in contiguous region 1
 342 faces in contiguous region 2
 4332 faces in contiguous region 3
 228 faces in contiguous region 4
 Separates zone 2 into 5 zone(s).
Updating new zone information...
   created new zone default_subface:010 from default_subface
   created new zone default_subface:009 from default_subface
   created new zone default_subface:008 from default_subface
   created new zone default_subface:007 from default_subface
done.

> 
adjoint/                parallel/               server/
define/                 parametric-study/       solve/
display/                plot/                   surface/
exit                    preferences/            turbo-workflow/
file/                   print-license-usage     views/
mesh/                   report/

> /define/boundary-conditions/zone-name  5   te

> /define/boundary-conditions/zone-name  7 wing

> /define/boundary-conditions/zone-name  2 sym1

> /define/boundary-conditions/zone-name  9 sym2

> 
adjoint/                parallel/               server/
define/                 parametric-study/       solve/
display/                plot/                   surface/
exit                    preferences/            turbo-workflow/
file/                   print-license-usage     views/
mesh/                   report/

> /define/boundary-conditions/zone-name  8 far1

> /define/boundary-conditions/zone-name 10 far2

> 
adjoint/                parallel/               server/
define/                 parametric-study/       solve/
display/                plot/                   surface/
exit                    preferences/            turbo-workflow/
file/                   print-license-usage     views/
mesh/                   report/

> /define/boundary-conditions/zone-type  8 pressure-far-field

> /define/boundary-conditions/zone-type 10 pressure-far-field

> /define/boundary-conditions/zone-type  2 symmetry

> /define/boundary-conditions/zone-type  9 symmetry

> 
adjoint/                parallel/               server/
define/                 parametric-study/       solve/
display/                plot/                   surface/
exit                    preferences/            turbo-workflow/
file/                   print-license-usage     views/
mesh/                   report/

> /define/boundary-conditions/pressure-far-field (far2 far1)
far1 no 0 no 0.1 no 300 yes no 1 no 0 no 0. no yes 5 0.02

> /define/boundary-conditions/pressure-far-field (far2 far1)
far2 no 0 no 0.1 no 300 yes no 1 no 0 no 0. no yes 5 0.02

> 
adjoint/                parallel/               server/
define/                 parametric-study/       solve/
display/                plot/                   surface/
exit                    preferences/            turbo-workflow/
file/                   print-license-usage     views/
mesh/                   report/

> /solve/initialize/compute-defaults/pressure-far-field (far2 far1)
far1

> /solve/initialize/initialize-flow

> 
adjoint/                parallel/               server/
define/                 parametric-study/       solve/
display/                plot/                   surface/
exit                    preferences/            turbo-workflow/
file/                   print-license-usage     views/
mesh/                   report/

> /solve/monitors/residual/convergence-criteria 1.e-9 1.e-9 1.e-9 1.e-9 1.e-9 1.e-9 1.e-9

> /solve/iterate 2000

  iter  continuity  x-velocity  y-velocity  z-velocity      energy           k       omega     time/iter
     1  1.0000e+00  1.0000e+00  1.0000e+00  1.0000e+00  1.0000e+00  1.8217e-01  1.3336e-01  0:00:00 1999
     2  5.1698e-01  3.3706e-01  4.2426e-01  1.0000e+00  5.1760e-01  1.3892e-01  1.0645e-01  0:00:00 1998
     3  2.9455e-01  1.9373e-01  2.3036e-01  1.0000e+00  2.9478e-01  1.0955e-01  8.7607e-02  0:00:00 1997
     4  1.8977e-01  1.6386e-01  1.5669e-01  7.2512e-01  1.8982e-01  8.9660e-02  7.3556e-02  0:00:00 1996
     5  1.3824e-01  1.4550e-01  1.0990e-01  7.0984e-01  1.3825e-01  7.6336e-02  6.3000e-02  0:33:15 1995
     6  1.1144e-01  1.1030e-01  7.7865e-02  9.0115e-01  1.1147e-01  6.6202e-02  5.5267e-02  0:26:35 1994
     7  9.5031e-02  8.4585e-02  5.6676e-02  9.4056e-01  9.5106e-02  5.7997e-02  4.9081e-02  0:21:16 1993
     8  8.2302e-02  6.7153e-02  4.3301e-02  8.5878e-01  8.2404e-02  5.1246e-02  4.3986e-02  0:17:00 1992
     9  7.1990e-02  5.5131e-02  3.4946e-02  7.6095e-01  7.2105e-02  4.5655e-02  3.9676e-02  0:13:36 1991
    10  6.3640e-02  4.7106e-02  2.9447e-02  6.9090e-01  6.3758e-02  4.1049e-02  3.6003e-02  0:10:52 1990
    11  5.7152e-02  4.2752e-02  2.5432e-02  6.3139e-01  5.7268e-02  3.7259e-02  3.2855e-02  0:08:41 1989

  iter  continuity  x-velocity  y-velocity  z-velocity      energy           k       omega     time/iter
    12  5.2278e-02  4.0819e-02  2.2288e-02  5.7763e-01  5.2389e-02  3.4072e-02  3.0169e-02  0:06:57 1988
    13  4.8994e-02  4.0479e-02  1.9676e-02  5.4319e-01  4.9100e-02  3.1346e-02  2.7848e-02  0:05:33 1987
    14  4.7143e-02  4.1024e-02  1.7522e-02  5.2046e-01  4.7243e-02  2.9009e-02  2.5812e-02  0:04:27 1986
    15  4.6421e-02  4.2113e-02  1.5792e-02  5.1144e-01  4.6517e-02  2.6974e-02  2.4011e-02  0:03:33 1985
    16  4.6620e-02  4.3616e-02  1.4434e-02  5.1039e-01  4.6712e-02  2.5188e-02  2.2420e-02  0:02:50 1984
    17  4.7458e-02  4.5351e-02  1.3507e-02  5.1338e-01  4.7546e-02  2.3585e-02  2.0999e-02  0:02:16 1983
    18  4.8714e-02  4.7258e-02  1.2970e-02  5.1812e-01  4.8798e-02  2.2137e-02  1.9718e-02  0:01:49 1982
    19  5.0193e-02  4.9220e-02  1.2759e-02  5.2196e-01  5.0272e-02  2.0830e-02  1.8556e-02  0:01:27 1981
    20  5.1722e-02  5.1119e-02  1.2838e-02  5.2394e-01  5.1796e-02  1.9628e-02  1.7500e-02  0:07:46 1980
    21  5.3151e-02  5.2780e-02  1.3233e-02  5.2528e-01  5.3219e-02  1.8514e-02  1.6532e-02  0:06:12 1979
    22  5.4344e-02  5.4064e-02  1.3908e-02  5.2540e-01  5.4405e-02  1.7484e-02  1.5642e-02  0:04:58 1978

  iter  continuity  x-velocity  y-velocity  z-velocity      energy           k       omega     time/iter
    23  5.5178e-02  5.4874e-02  1.4766e-02  5.2409e-01  5.5231e-02  1.6524e-02  1.4822e-02  0:03:58 1977
    24  5.5561e-02  5.5118e-02  1.5755e-02  5.2021e-01  5.5606e-02  1.5634e-02  1.4063e-02  0:03:10 1976
    25  5.5422e-02  5.4750e-02  1.6784e-02  5.1269e-01  5.5458e-02  1.4799e-02  1.3363e-02  0:02:32 1975
    26  5.4713e-02  5.3713e-02  1.7762e-02  5.0026e-01  5.4741e-02  1.4015e-02  1.2707e-02  0:02:02 1974
    27  5.3414e-02  5.2041e-02  1.8582e-02  4.8173e-01  5.3433e-02  1.3288e-02  1.2093e-02  0:01:37 1973
    28  5.1532e-02  4.9802e-02  1.9162e-02  4.4743e-01  5.1543e-02  1.2610e-02  1.1520e-02  0:01:18 1972
    29  4.9084e-02  4.6947e-02  1.9474e-02  4.3632e-01  4.9088e-02  1.1978e-02  1.0983e-02  0:01:02 1971
    30  4.6109e-02  4.3563e-02  1.9516e-02  4.1290e-01  4.6107e-02  1.1391e-02  1.0474e-02  0:00:50 1970
    31  4.2656e-02  3.9726e-02  1.9300e-02  3.8426e-01  4.2649e-02  1.0838e-02  9.9959e-03  0:00:40 1969
    32  3.8776e-02  3.5512e-02  1.8850e-02  3.5771e-01  3.8766e-02  1.0320e-02  9.5476e-03  0:00:32 1968
    33  3.4537e-02  3.1052e-02  1.8196e-02  3.3661e-01  3.4525e-02  9.8486e-03  9.1168e-03  0:00:25 1967

  iter  continuity  x-velocity  y-velocity  z-velocity      energy           k       omega     time/iter
    34  3.0017e-02  2.6461e-02  1.7362e-02  3.2593e-01  3.0005e-02  9.4152e-03  8.7083e-03  0:00:20 1966
    35  2.5323e-02  2.2018e-02  1.6392e-02  3.3048e-01  2.5312e-02  9.0057e-03  8.3198e-03  0:00:16 1965
    36  2.0598e-02  1.8463e-02  1.5290e-02  3.5263e-01  2.0588e-02  8.6232e-03  7.9449e-03  0:00:13 1964
    37  1.5988e-02  1.6321e-02  1.4105e-02  3.8955e-01  1.5979e-02  8.2536e-03  7.5942e-03  0:00:10 1963
    38  1.1720e-02  1.6021e-02  1.2874e-02  4.3736e-01  1.1711e-02  7.9012e-03  7.2555e-03  0:00:08 1962
    39  8.2607e-03  1.7455e-02  1.1660e-02  4.9277e-01  8.2462e-03  7.5690e-03  6.9302e-03  0:00:07 1961
    40  6.6268e-03  2.0030e-02  1.0504e-02  5.4961e-01  6.6019e-03  7.2585e-03  6.6501e-03  0:06:37 1960
    41  7.6004e-03  2.3144e-02  9.4446e-03  6.0701e-01  7.5683e-03  6.9695e-03  6.3515e-03  0:05:18 1959
    42  1.0088e-02  2.6313e-02  8.5454e-03  6.5954e-01  1.0054e-02  6.6943e-03  6.0683e-03  0:04:14 1958
    43  1.2937e-02  2.9320e-02  7.8289e-03  7.0303e-01  1.2901e-02  6.4232e-03  5.7955e-03  0:03:23 1957
    44  1.5690e-02  3.2040e-02  7.3004e-03  7.3622e-01  1.5653e-02  6.1586e-03  5.5292e-03  0:02:42 1956

  iter  continuity  x-velocity  y-velocity  z-velocity      energy           k       omega     time/iter
    45  1.8182e-02  3.4367e-02  6.9893e-03  7.5957e-01  1.8145e-02  5.9063e-03  5.2766e-03  0:02:10 1955
    46  2.0347e-02  3.6275e-02  6.8520e-03  7.6920e-01  2.0310e-02  5.6971e-03  5.0391e-03  0:01:44 1954
    47  2.2152e-02  3.7742e-02  6.8500e-03  7.6741e-01  2.2116e-02  5.4710e-03  4.7961e-03  0:01:23 1953
    48  2.3593e-02  3.8779e-02  6.9532e-03  7.3862e-01  2.3558e-02  5.2600e-03  4.5645e-03  0:01:06 1952
    49  2.4689e-02  3.9415e-02  7.1242e-03  7.1110e-01  2.4655e-02  5.0597e-03  4.3460e-03  0:00:53 1951
    50  2.5458e-02  3.9655e-02  7.3322e-03  6.6569e-01  2.5426e-02  4.8623e-03  4.1425e-03  0:00:42 1950
    51  2.5922e-02  3.9543e-02  7.5385e-03  6.1031e-01  2.5893e-02  4.6785e-03  3.9524e-03  0:00:34 1949
    52  2.6107e-02  3.9159e-02  7.6862e-03  5.4780e-01  2.6080e-02  4.5135e-03  3.7767e-03  0:00:27 1948
    53  2.6036e-02  3.8395e-02  7.8569e-03  4.8115e-01  2.6012e-02  4.3623e-03  3.6096e-03  0:00:22 1947
    54  2.5735e-02  3.7316e-02  7.9978e-03  4.1728e-01  2.5713e-02  4.2332e-03  3.4625e-03  0:00:17 1946
    55  2.5225e-02  3.5968e-02  8.0861e-03  3.6038e-01  2.5206e-02  4.1295e-03  3.3305e-03  0:00:14 1945

  iter  continuity  x-velocity  y-velocity  z-velocity      energy           k       omega     time/iter
    56  2.4532e-02  3.4390e-02  8.1219e-03  3.1878e-01  2.4515e-02  4.0343e-03  3.2099e-03  0:00:11 1944
    57  2.3679e-02  3.2620e-02  8.1070e-03  3.0111e-01  2.3664e-02  3.9417e-03  3.0959e-03  0:00:09 1943
    58  2.2691e-02  3.0709e-02  8.0276e-03  3.1373e-01  2.2677e-02  3.8545e-03  2.9856e-03  0:00:07 1942
    59  2.1588e-02  2.8674e-02  7.9069e-03  3.5417e-01  2.1577e-02  3.7710e-03  2.8714e-03  0:06:34 1941
    60  2.0390e-02  2.6541e-02  7.7505e-03  4.1044e-01  2.0380e-02  3.6933e-03  2.7911e-03  0:05:15 1940
    61  1.9116e-02  2.4358e-02  7.5543e-03  4.7136e-01  1.9108e-02  3.6151e-03  2.7218e-03  0:04:12 1939
    62  1.7783e-02  2.2150e-02  7.3238e-03  5.3095e-01  1.7775e-02  3.5335e-03  2.6466e-03  0:03:21 1938
    63  1.6404e-02  1.9948e-02  7.0618e-03  5.8460e-01  1.6397e-02  3.4475e-03  2.5680e-03  0:02:41 1937
    64  1.4988e-02  1.7777e-02  6.7743e-03  6.2710e-01  1.4982e-02  3.3626e-03  2.4928e-03  0:02:09 1936
    65  1.3541e-02  1.5648e-02  6.4703e-03  6.5629e-01  1.3535e-02  3.2773e-03  2.4145e-03  0:01:43 1935
    66  1.2062e-02  1.3624e-02  6.1438e-03  6.7198e-01  1.2057e-02  3.1921e-03  2.3383e-03  0:01:22 1934

  iter  continuity  x-velocity  y-velocity  z-velocity      energy           k       omega     time/iter
    67  1.0541e-02  1.1727e-02  5.8026e-03  6.7435e-01  1.0536e-02  3.1086e-03  2.2715e-03  0:01:06 1933
    68  8.9885e-03  1.0071e-02  5.4191e-03  6.6359e-01  8.9828e-03  3.0226e-03  2.2086e-03  0:00:53 1932
    69  7.4178e-03  8.7948e-03  5.0056e-03  6.3312e-01  7.4118e-03  2.9308e-03  2.1663e-03  0:00:42 1931
    70  5.8981e-03  8.1057e-03  4.5686e-03  6.1126e-01  5.8918e-03  2.8372e-03  2.1099e-03  0:00:34 1930
    71  4.6030e-03  8.1052e-03  4.1324e-03  5.7178e-01  4.5968e-03  2.7416e-03  2.0463e-03  0:00:27 1929
    72  3.8264e-03  8.7556e-03  3.7294e-03  5.2091e-01  3.8214e-03  2.6486e-03  1.9833e-03  0:00:22 1928
    73  4.0038e-03  9.8618e-03  3.3391e-03  4.6475e-01  4.0019e-03  2.5546e-03  1.9203e-03  0:00:17 1927
    74  5.2071e-03  1.1210e-02  2.9639e-03  4.0971e-01  5.2082e-03  2.4694e-03  1.8631e-03  0:00:14 1926
    75  7.0654e-03  1.2681e-02  2.6608e-03  3.6238e-01  7.0686e-03  2.3906e-03  1.8226e-03  0:00:11 1925
    76  9.2601e-03  1.4139e-02  2.4877e-03  3.3374e-01  9.2646e-03  2.3209e-03  1.7867e-03  0:00:09 1924
    77  1.1556e-02  1.5573e-02  2.5292e-03  3.3513e-01  1.1561e-02  2.2587e-03  1.7500e-03  0:00:07 1923

  iter  continuity  x-velocity  y-velocity  z-velocity      energy           k       omega     time/iter
    78  1.3795e-02  1.6951e-02  2.7673e-03  3.6989e-01  1.3801e-02  2.1892e-03  1.7036e-03  0:06:30 1922
    79  1.5905e-02  1.8210e-02  3.1158e-03  4.2963e-01  1.5911e-02  2.1500e-03  1.6945e-03  0:05:12 1921
    80  1.7867e-02  1.9362e-02  3.5293e-03  5.0453e-01  1.7873e-02  2.0976e-03  1.6578e-03  0:04:09 1920
    81  1.9643e-02  2.0343e-02  3.9874e-03  5.8429e-01  1.9648e-02  2.0639e-03  1.6272e-03  0:03:19 1919
    82  2.1192e-02  2.1141e-02  4.4737e-03  6.6886e-01  2.1197e-02  2.0398e-03  1.6099e-03  0:02:39 1918
    83  2.2492e-02  2.1750e-02  4.9606e-03  7.4537e-01  2.2496e-02  2.0186e-03  1.5884e-03  0:02:07 1917
    84  2.3526e-02  2.2164e-02  5.4265e-03  8.0959e-01  2.3529e-02  1.9931e-03  1.5671e-03  0:01:42 1916
    85  2.4284e-02  2.2373e-02  5.8563e-03  8.6039e-01  2.4286e-02  1.9686e-03  1.5338e-03  0:01:21 1915
    86  2.4760e-02  2.2376e-02  6.2375e-03  8.9818e-01  2.4761e-02  1.9414e-03  1.5033e-03  0:01:05 1914
    87  2.4955e-02  2.2183e-02  6.5603e-03  9.2293e-01  2.4956e-02  1.9179e-03  1.4736e-03  0:00:52 1913
    88  2.4875e-02  2.1795e-02  6.8226e-03  9.3288e-01  2.4875e-02  1.8825e-03  1.4329e-03  0:00:42 1912

  iter  continuity  x-velocity  y-velocity  z-velocity      energy           k       omega     time/iter
    89  2.4528e-02  2.1222e-02  7.0139e-03  9.2648e-01  2.4526e-02  1.8459e-03  1.3868e-03  0:00:33 1911
    90  2.3924e-02  2.0482e-02  7.1357e-03  8.9911e-01  2.3922e-02  1.8083e-03  1.3486e-03  0:00:27 1910
    91  2.3075e-02  1.9576e-02  7.1951e-03  8.6688e-01  2.3072e-02  1.7684e-03  1.3073e-03  0:00:21 1909
    92  2.1994e-02  1.8529e-02  7.1868e-03  8.1113e-01  2.1991e-02  1.7290e-03  1.2728e-03  0:00:17 1908
    93  2.0697e-02  1.7368e-02  7.1094e-03  7.4300e-01  2.0693e-02  1.6941e-03  1.2429e-03  0:00:14 1907
    94  1.9203e-02  1.6131e-02  6.9643e-03  6.6652e-01  1.9199e-02  1.6634e-03  1.2200e-03  0:00:11 1906
    95  1.7535e-02  1.4861e-02  6.7563e-03  5.8358e-01  1.7531e-02  1.6355e-03  1.2031e-03  0:00:09 1905
    96  1.5714e-02  1.3596e-02  6.4919e-03  4.9823e-01  1.5711e-02  1.6141e-03  1.1994e-03  0:00:07 1904
    97  1.3766e-02  1.2394e-02  6.1760e-03  4.1673e-01  1.3762e-02  1.5911e-03  1.1961e-03  0:06:26 1903
    98  1.1720e-02  1.1335e-02  5.8176e-03  3.4922e-01  1.1716e-02  1.5747e-03  1.1723e-03  0:05:09 1902
    99  9.6195e-03  1.0503e-02  5.4210e-03  3.1187e-01  9.6166e-03  1.5582e-03  1.1560e-03  0:04:07 1901

  iter  continuity  x-velocity  y-velocity  z-velocity      energy           k       omega     time/iter
   100  7.5324e-03  9.9764e-03  4.9934e-03  3.2166e-01  7.5297e-03  1.5409e-03  1.1433e-03  0:03:17 1900
   101  5.5681e-03  9.7862e-03  4.5431e-03  3.7506e-01  5.5653e-03  1.5238e-03  1.1358e-03  0:02:38 1899
   102  4.0254e-03  9.9634e-03  4.0891e-03  4.5458e-01  4.0216e-03  1.5072e-03  1.1071e-03  0:02:06 1898
   103  3.5080e-03  1.0444e-02  3.6381e-03  5.4607e-01  3.5024e-03  1.4874e-03  1.0832e-03  0:01:41 1897
   104  4.3349e-03  1.1141e-02  3.2136e-03  6.4128e-01  4.3287e-03  1.4661e-03  1.0696e-03  0:01:21 1896
   105  5.8821e-03  1.1958e-02  2.8417e-03  7.3192e-01  5.8757e-03  1.4407e-03  1.0507e-03  0:01:05 1895
   106  7.6382e-03  1.2815e-02  2.5537e-03  8.1246e-01  7.6317e-03  1.4146e-03  1.0386e-03  0:00:52 1894
   107  9.3829e-03  1.3647e-02  2.3803e-03  8.8378e-01  9.3762e-03  1.3849e-03  1.0219e-03  0:00:41 1893
   108  1.1026e-02  1.4407e-02  2.3405e-03  9.4339e-01  1.1019e-02  1.3538e-03  1.0056e-03  0:00:33 1892
   109  1.2523e-02  1.5063e-02  2.4300e-03  9.8957e-01  1.2517e-02  1.3279e-03  9.8779e-04  0:00:26 1891
   110  1.3846e-02  1.5603e-02  2.6055e-03  1.0228e+00  1.3839e-02  1.2990e-03  9.7278e-04  0:00:21 1890

  iter  continuity  x-velocity  y-velocity  z-velocity      energy           k       omega     time/iter
   111  1.4972e-02  1.5999e-02  2.8404e-03  1.0417e+00  1.4966e-02  1.2811e-03  9.6090e-04  0:00:17 1889
   112  1.5892e-02  1.6243e-02  3.1053e-03  1.0470e+00  1.5886e-02  1.2729e-03  9.5388e-04  0:00:13 1888
   113  1.6601e-02  1.6331e-02  3.3730e-03  1.0331e+00  1.6595e-02  1.2655e-03  9.5049e-04  0:00:11 1887
   114  1.7097e-02  1.6264e-02  3.6261e-03  9.7316e-01  1.7092e-02  1.2590e-03  9.3699e-04  0:00:09 1886
   115  1.7384e-02  1.6047e-02  3.8524e-03  9.5855e-01  1.7379e-02  1.2545e-03  9.2860e-04  0:06:24 1885
   116  1.7465e-02  1.5682e-02  4.0470e-03  9.3046e-01  1.7461e-02  1.2498e-03  9.2186e-04  0:05:07 1884
   117  1.7349e-02  1.5186e-02  4.2005e-03  8.9132e-01  1.7346e-02  1.2454e-03  9.1152e-04  0:04:05 1883
   118  1.7046e-02  1.4567e-02  4.3116e-03  8.3075e-01  1.7044e-02  1.2405e-03  9.0053e-04  0:03:16 1882
   119  1.6567e-02  1.3832e-02  4.3798e-03  7.6150e-01  1.6566e-02  1.2352e-03  8.9205e-04  0:02:37 1881
   120  1.5925e-02  1.2997e-02  4.4063e-03  6.8460e-01  1.5924e-02  1.2285e-03  8.8064e-04  0:02:05 1880
   121  1.5135e-02  1.2077e-02  4.3914e-03  6.0090e-01  1.5134e-02  1.2206e-03  8.6829e-04  0:01:40 1879

  iter  continuity  x-velocity  y-velocity  z-velocity      energy           k       omega     time/iter
   122  1.4211e-02  1.1085e-02  4.3361e-03  5.1345e-01  1.4211e-02  1.2118e-03  8.6134e-04  0:01:20 1878
   123  1.3171e-02  1.0041e-02  4.2429e-03  4.2478e-01  1.3171e-02  1.2018e-03  8.4762e-04  0:01:04 1877
   124  1.2032e-02  8.9627e-03  4.1143e-03  3.3786e-01  1.2032e-02  1.1907e-03  8.2932e-04  0:00:51 1876
   125  1.0812e-02  7.8700e-03  3.9532e-03  2.5378e-01  1.0812e-02  1.1798e-03  8.1010e-04  0:00:41 1875
   126  9.5303e-03  6.7892e-03  3.7634e-03  1.8099e-01  9.5302e-03  1.1688e-03  7.8967e-04  0:00:33 1874
   127  8.2080e-03  5.7532e-03  3.5481e-03  1.3762e-01  8.2078e-03  1.1570e-03  7.7153e-04  0:00:26 1873
   128  6.8696e-03  4.8092e-03  3.3117e-03  1.4734e-01  6.8691e-03  1.1445e-03  7.6185e-04  0:00:21 1872
   129  5.5455e-03  4.0265e-03  3.0598e-03  1.9638e-01  5.5446e-03  1.1300e-03  7.5771e-04  0:00:17 1871
   130  4.2819e-03  3.5050e-03  2.7975e-03  2.5987e-01  4.2805e-03  1.1130e-03  7.5774e-04  0:00:13 1870
   131  3.1741e-03  3.3418e-03  2.5306e-03  3.2576e-01  3.1718e-03  1.1067e-03  7.7593e-04  0:00:11 1869
   132  2.4359e-03  3.5472e-03  2.2657e-03  3.8883e-01  2.4325e-03  1.1005e-03  7.7673e-04  0:00:09 1868

  iter  continuity  x-velocity  y-velocity  z-velocity      energy           k       omega     time/iter
   133  2.3786e-03  4.0238e-03  2.0121e-03  4.4585e-01  2.3749e-03  1.0805e-03  7.5356e-04  0:00:07 1867
   134  2.9785e-03  4.6488e-03  1.7815e-03  4.9655e-01  2.9756e-03  1.0782e-03  7.6688e-04  0:06:19 1866
   135  3.8866e-03  5.3286e-03  1.5877e-03  5.4078e-01  3.8845e-03  1.0542e-03  7.5412e-04  0:05:03 1865
   136  4.8784e-03  6.0058e-03  1.4475e-03  5.7936e-01  4.8769e-03  1.0319e-03  7.4526e-04  0:04:02 1864
   137  5.8603e-03  6.6467e-03  1.3786e-03  6.1164e-01  5.8592e-03  1.0169e-03  7.3615e-04  0:03:14 1863
   138  6.7781e-03  7.2315e-03  1.3860e-03  6.3754e-01  6.7772e-03  1.0105e-03  7.2962e-04  0:02:35 1862
   139  7.6076e-03  7.7487e-03  1.4608e-03  6.5646e-01  7.6069e-03  1.0037e-03  7.2247e-04  0:02:04 1861
   140  8.3345e-03  8.1898e-03  1.5841e-03  6.6648e-01  8.3339e-03  9.9652e-04  7.1497e-04  0:01:39 1860
   141  8.9547e-03  8.5531e-03  1.7360e-03  6.7124e-01  8.9541e-03  9.8915e-04  7.0606e-04  0:01:19 1859
   142  9.4644e-03  8.8394e-03  1.8977e-03  6.6189e-01  9.4639e-03  9.8163e-04  6.9243e-04  0:01:03 1858
   143  9.8590e-03  9.0336e-03  2.0672e-03  6.6668e-01  9.8585e-03  9.7414e-04  6.7775e-04  0:00:51 1857

  iter  continuity  x-velocity  y-velocity  z-velocity      energy           k       omega     time/iter
   144  1.0137e-02  9.1424e-03  2.2279e-03  6.5471e-01  1.0137e-02  9.6515e-04  6.6459e-04  0:00:40 1856
   145  1.0299e-02  9.1695e-03  2.3736e-03  6.3706e-01  1.0299e-02  9.5524e-04  6.5105e-04  0:00:32 1855
   146  1.0347e-02  9.1181e-03  2.5002e-03  6.1868e-01  1.0346e-02  9.4435e-04  6.3976e-04  0:00:26 1854
   147  1.0283e-02  8.9938e-03  2.6047e-03  5.9619e-01  1.0283e-02  9.3172e-04  6.3062e-04  0:00:21 1853
   148  1.0113e-02  8.8019e-03  2.6851e-03  5.7020e-01  1.0112e-02  9.1885e-04  6.1719e-04  0:00:17 1852
   149  9.8419e-03  8.5472e-03  2.7409e-03  5.4026e-01  9.8409e-03  9.0688e-04  6.0579e-04  0:00:13 1851
   150  9.4765e-03  8.2373e-03  2.7708e-03  5.0734e-01  9.4755e-03  8.9420e-04  5.9352e-04  0:00:11 1850
   151  9.0249e-03  7.8816e-03  2.7743e-03  4.7209e-01  9.0240e-03  8.8089e-04  5.8158e-04  0:00:08 1849
   152  8.4960e-03  7.4903e-03  2.7518e-03  4.3373e-01  8.4950e-03  8.6684e-04  5.6904e-04  0:00:07 1848
   153  7.8991e-03  7.0749e-03  2.7042e-03  3.9325e-01  7.8982e-03  8.5379e-04  5.5825e-04  0:06:15 1847
   154  7.2443e-03  6.6475e-03  2.6315e-03  3.5092e-01  7.2434e-03  8.4261e-04  5.5739e-04  0:05:00 1846

  iter  continuity  x-velocity  y-velocity  z-velocity      energy           k       omega     time/iter
   155  6.5426e-03  6.2233e-03  2.5376e-03  3.0729e-01  6.5418e-03  8.3472e-04  5.4791e-04  0:04:00 1845
   156  5.8059e-03  5.8159e-03  2.4246e-03  2.6292e-01  5.8052e-03  8.2751e-04  5.4360e-04  0:03:12 1844
   157  5.0468e-03  5.4434e-03  2.2936e-03  2.1973e-01  5.0461e-03  8.1929e-04  5.2433e-04  0:02:33 1843
   158  4.2775e-03  5.1222e-03  2.1469e-03  1.7830e-01  4.2768e-03  8.1242e-04  5.1369e-04  0:02:02 1842
   159  3.5198e-03  4.8695e-03  1.9875e-03  1.4159e-01  3.5191e-03  8.0625e-04  5.1500e-04  0:01:38 1841
   160  2.8034e-03  4.6966e-03  1.8188e-03  1.1700e-01  2.8026e-03  8.0062e-04  5.2241e-04  0:01:18 1840
   161  2.1760e-03  4.6096e-03  1.6453e-03  1.1089e-01  2.1750e-03  7.9510e-04  5.2001e-04  0:01:03 1839
   162  1.7236e-03  4.6080e-03  1.4719e-03  1.2412e-01  1.7220e-03  7.8919e-04  5.3139e-04  0:00:50 1838
   163  1.5818e-03  4.6810e-03  1.3036e-03  1.5006e-01  1.5797e-03  7.8343e-04  5.1984e-04  0:00:40 1837
   164  1.7937e-03  4.8132e-03  1.1466e-03  1.8287e-01  1.7914e-03  7.7623e-04  5.0762e-04  0:00:32 1836
   165  2.2272e-03  4.9865e-03  1.0093e-03  2.1751e-01  2.2249e-03  7.6755e-04  5.0247e-04  0:00:26 1835

  iter  continuity  x-velocity  y-velocity  z-velocity      energy           k       omega     time/iter
   166  2.7469e-03  5.1825e-03  9.0115e-04  2.5037e-01  2.7447e-03  7.4409e-04  5.0056e-04  0:00:20 1834
   167  3.2815e-03  5.3853e-03  8.3271e-04  2.8076e-01  3.2794e-03  7.1909e-04  4.8872e-04  0:00:16 1833
   168  3.7971e-03  5.5813e-03  8.1081e-04  3.0641e-01  3.7950e-03  7.0539e-04  4.7949e-04  0:00:13 1832
   169  4.2790e-03  5.7597e-03  8.3469e-04  3.3113e-01  4.2770e-03  6.9213e-04  4.7227e-04  0:00:10 1831
   170  4.7124e-03  5.9112e-03  8.9482e-04  3.5388e-01  4.7104e-03  6.8053e-04  4.6672e-04  0:00:08 1830
   171  5.0913e-03  6.0297e-03  9.7767e-04  3.7338e-01  5.0893e-03  6.6974e-04  4.5625e-04  0:00:07 1829
   172  5.4124e-03  6.1108e-03  1.0715e-03  3.7953e-01  5.4106e-03  6.5968e-04  4.4398e-04  0:06:11 1828
   173  5.6742e-03  6.1511e-03  1.1676e-03  3.8801e-01  5.6725e-03  6.4939e-04  4.3334e-04  0:04:57 1827
   174  5.8757e-03  6.1486e-03  1.2602e-03  4.0344e-01  5.8740e-03  6.3937e-04  4.2585e-04  0:03:57 1826
   175  6.0168e-03  6.1020e-03  1.3453e-03  4.1150e-01  6.0153e-03  6.2946e-04  4.2032e-04  0:03:10 1825
   176  6.0980e-03  6.0116e-03  1.4202e-03  4.1535e-01  6.0965e-03  6.1948e-04  4.1283e-04  0:02:32 1824

  iter  continuity  x-velocity  y-velocity  z-velocity      energy           k       omega     time/iter
   177  6.1202e-03  5.8783e-03  1.4833e-03  4.1626e-01  6.1189e-03  6.0934e-04  4.0468e-04  0:02:01 1823
   178  6.0851e-03  5.7036e-03  1.5332e-03  4.1310e-01  6.0839e-03  5.9860e-04  3.9944e-04  0:01:37 1822
   179  5.9946e-03  5.4893e-03  1.5693e-03  4.0632e-01  5.9936e-03  5.8798e-04  3.9117e-04  0:01:17 1821
   180  5.8514e-03  5.2394e-03  1.5914e-03  3.9554e-01  5.8505e-03  5.7805e-04  3.8415e-04  0:01:02 1820
   181  5.6584e-03  4.9573e-03  1.5993e-03  3.8049e-01  5.6576e-03  5.6904e-04  3.7418e-04  0:00:50 1819
   182  5.4190e-03  4.6473e-03  1.5934e-03  3.6163e-01  5.4183e-03  5.6062e-04  3.6471e-04  0:00:40 1818
   183  5.1369e-03  4.3144e-03  1.5741e-03  3.3967e-01  5.1363e-03  5.5299e-04  3.6654e-04  0:00:32 1817
   184  4.8163e-03  3.9648e-03  1.5418e-03  3.1504e-01  4.8158e-03  5.4668e-04  3.6795e-04  0:00:25 1816
   185  4.4618e-03  3.6061e-03  1.4973e-03  2.8802e-01  4.4614e-03  5.3990e-04  3.6923e-04  0:00:20 1815
   186  4.0786e-03  3.2472e-03  1.4415e-03  2.5902e-01  4.0783e-03  5.3301e-04  3.7104e-04  0:00:16 1814
   187  3.6723e-03  2.8995e-03  1.3756e-03  2.2886e-01  3.6721e-03  5.2673e-04  3.7794e-04  0:00:13 1813

  iter  continuity  x-velocity  y-velocity  z-velocity      energy           k       omega     time/iter
   188  3.2495e-03  2.5775e-03  1.3005e-03  1.9822e-01  3.2494e-03  5.2119e-04  3.8750e-04  0:00:10 1812
   189  2.8179e-03  2.2994e-03  1.2179e-03  1.6713e-01  2.8178e-03  5.1726e-04  3.7301e-04  0:00:08 1811
   190  2.3894e-03  2.0873e-03  1.1291e-03  1.3705e-01  2.3894e-03  5.1265e-04  3.6058e-04  0:00:07 1810
   191  1.9772e-03  1.9631e-03  1.0364e-03  1.0851e-01  1.9774e-03  5.1317e-04  3.4454e-04  0:06:07 1809
   192  1.6036e-03  1.9393e-03  9.4162e-04  8.3653e-02  1.6039e-03  5.1462e-04  3.4669e-04  0:04:54 1808
   193  1.3093e-03  2.0123e-03  8.4720e-04  6.7742e-02  1.3099e-03  5.1485e-04  3.5560e-04  0:03:55 1807
   194  1.1563e-03  2.1623e-03  7.5617e-04  6.7044e-02  1.1570e-03  5.1806e-04  3.6597e-04  0:03:08 1806
   195  1.1911e-03  2.3634e-03  6.7252e-04  8.0706e-02  1.1919e-03  4.9342e-04  3.4661e-04  0:02:30 1805
   196  1.3861e-03  2.5919e-03  6.0136e-04  1.0199e-01  1.3868e-03  4.7078e-04  3.3332e-04  0:02:00 1804
   197  1.6706e-03  2.8295e-03  5.4857e-04  1.2773e-01  1.6712e-03  4.5843e-04  3.2725e-04  0:01:36 1803
   198  1.9905e-03  3.0629e-03  5.1955e-04  1.5314e-01  1.9910e-03  4.4830e-04  3.2410e-04  0:01:17 1802

  iter  continuity  x-velocity  y-velocity  z-velocity      energy           k       omega     time/iter
   199  2.3152e-03  3.2826e-03  5.1700e-04  1.7652e-01  2.3156e-03  4.4085e-04  3.1929e-04  0:01:01 1801
   200  2.6278e-03  3.4823e-03  5.3929e-04  1.9682e-01  2.6282e-03  4.3850e-04  3.1440e-04  0:00:49 1800
   201  2.9182e-03  3.6574e-03  5.8086e-04  2.1429e-01  2.9185e-03  4.3574e-04  3.1016e-04  0:00:39 1799
   202  3.1798e-03  3.8044e-03  6.3491e-04  2.2883e-01  3.1800e-03  4.3202e-04  3.0769e-04  0:00:31 1798
   203  3.4082e-03  3.9210e-03  6.9538e-04  2.3966e-01  3.4084e-03  4.2815e-04  3.0199e-04  0:00:25 1797
   204  3.6015e-03  4.0056e-03  7.5772e-04  2.4532e-01  3.6016e-03  4.2311e-04  2.9964e-04  0:00:20 1796
   205  3.7555e-03  4.0580e-03  8.1843e-04  2.5256e-01  3.7555e-03  4.1743e-04  3.0061e-04  0:00:16 1795
   206  3.8686e-03  4.0796e-03  8.7467e-04  2.5839e-01  3.8686e-03  4.1192e-04  2.9640e-04  0:00:13 1794
   207  3.9407e-03  4.0707e-03  9.2482e-04  2.6424e-01  3.9406e-03  4.0575e-04  2.8859e-04  0:00:10 1793
   208  3.9722e-03  4.0327e-03  9.6755e-04  2.6453e-01  3.9719e-03  3.9893e-04  2.8632e-04  0:00:08 1792
   209  3.9636e-03  3.9674e-03  1.0020e-03  2.6132e-01  3.9634e-03  3.9221e-04  2.8652e-04  0:00:07 1791

  iter  continuity  x-velocity  y-velocity  z-velocity      energy           k       omega     time/iter
   210  3.9164e-03  3.8771e-03  1.0277e-03  2.5764e-01  3.9160e-03  3.8569e-04  2.8444e-04  0:06:03 1790
   211  3.8319e-03  3.7644e-03  1.0443e-03  2.5148e-01  3.8315e-03  3.7965e-04  2.7723e-04  0:04:50 1789
   212  3.7121e-03  3.6326e-03  1.0517e-03  2.4324e-01  3.7116e-03  3.7315e-04  2.6897e-04  0:03:52 1788
   213  3.5593e-03  3.4856e-03  1.0499e-03  2.3296e-01  3.5588e-03  3.6610e-04  2.6209e-04  0:03:06 1787
   214  3.3763e-03  3.3275e-03  1.0391e-03  2.2054e-01  3.3757e-03  3.5952e-04  2.5989e-04  0:02:28 1786
   215  3.1662e-03  3.1631e-03  1.0198e-03  2.0606e-01  3.1655e-03  3.5485e-04  2.5327e-04  0:01:59 1785
   216  2.9333e-03  2.9967e-03  9.9213e-04  1.8988e-01  2.9326e-03  3.5122e-04  2.5446e-04  0:01:35 1784
   217  2.6812e-03  2.8338e-03  9.5693e-04  1.7261e-01  2.6803e-03  3.5010e-04  2.5399e-04  0:01:16 1783
   218  2.4133e-03  2.6805e-03  9.1487e-04  1.5446e-01  2.4123e-03  3.4932e-04  2.5487e-04  0:01:01 1782
   219  2.1349e-03  2.5431e-03  8.6663e-04  1.3573e-01  2.1338e-03  3.4801e-04  2.5258e-04  0:00:49 1781
   220  1.8526e-03  2.4274e-03  8.1310e-04  1.1690e-01  1.8514e-03  3.4618e-04  2.5450e-04  0:00:39 1780

  iter  continuity  x-velocity  y-velocity  z-velocity      energy           k       omega     time/iter
   221  1.5750e-03  2.3383e-03  7.5538e-04  9.8766e-02  1.5736e-03  3.4376e-04  2.5563e-04  0:00:31 1779
   222  1.3151e-03  2.2792e-03  6.9476e-04  8.1889e-02  1.3133e-03  3.4084e-04  2.5315e-04  0:00:25 1778
   223  1.0924e-03  2.2515e-03  6.3267e-04  6.7837e-02  1.0903e-03  3.3745e-04  2.4763e-04  0:00:20 1777
   224  9.3751e-04  2.2541e-03  5.7091e-04  5.8507e-02  9.3502e-04  3.3384e-04  2.3530e-04  0:00:16 1776
   225  8.8523e-04  2.2835e-03  5.1167e-04  5.6017e-02  8.8257e-04  3.2965e-04  2.2487e-04  0:06:08 1775
   226  9.4693e-04  2.3346e-03  4.5778e-04  6.0058e-02  9.4441e-04  3.2453e-04  2.2086e-04  0:04:54 1774
   227  1.0952e-03  2.4008e-03  4.1253e-04  6.8331e-02  1.0930e-03  3.1879e-04  2.1875e-04  0:03:55 1773
   228  1.2911e-03  2.4760e-03  3.7982e-04  7.8893e-02  1.2893e-03  3.1289e-04  2.1856e-04  0:03:08 1772
   229  1.5062e-03  2.5541e-03  3.6314e-04  9.0195e-02  1.5046e-03  3.0766e-04  2.1529e-04  0:02:30 1771
   230  1.7233e-03  2.6298e-03  3.6395e-04  1.0111e-01  1.7219e-03  3.0331e-04  2.1076e-04  0:02:00 1770
   231  1.9323e-03  2.6986e-03  3.8083e-04  1.1140e-01  1.9310e-03  2.9989e-04  2.0780e-04  0:01:36 1769

  iter  continuity  x-velocity  y-velocity  z-velocity      energy           k       omega     time/iter
   232  2.1265e-03  2.7568e-03  4.1004e-04  1.2076e-01  2.1254e-03  2.9695e-04  2.0364e-04  0:01:17 1768
   233  2.3016e-03  2.8014e-03  4.4716e-04  1.2875e-01  2.3005e-03  3.1649e-04  2.1320e-04  0:01:01 1767
   234  2.4543e-03  2.8302e-03  4.8829e-04  1.3439e-01  2.4534e-03  2.9934e-04  2.0562e-04  0:00:49 1766
   235  2.5823e-03  2.8413e-03  5.3039e-04  1.3579e-01  2.5815e-03  2.9038e-04  1.9958e-04  0:00:39 1765
   236  2.6840e-03  2.8338e-03  5.7126e-04  1.3861e-01  2.6832e-03  2.8307e-04  1.9585e-04  0:00:31 1764
   237  2.7579e-03  2.8073e-03  6.0923e-04  1.4164e-01  2.7573e-03  2.7969e-04  1.9391e-04  0:00:25 1763
   238  2.8035e-03  2.7616e-03  6.4303e-04  1.4339e-01  2.8030e-03  2.7773e-04  1.9166e-04  0:00:20 1762
   239  2.8203e-03  2.6972e-03  6.7188e-04  1.4253e-01  2.8198e-03  2.7578e-04  1.8725e-04  0:00:16 1761
   240  2.8082e-03  2.6153e-03  6.9516e-04  1.4025e-01  2.8078e-03  2.7388e-04  1.8570e-04  0:00:13 1760
   241  2.7678e-03  2.5173e-03  7.1238e-04  1.3758e-01  2.7675e-03  2.7207e-04  1.8374e-04  0:00:10 1759
   242  2.6997e-03  2.4056e-03  7.2327e-04  1.3384e-01  2.6995e-03  2.7028e-04  1.8575e-04  0:00:08 1758

  iter  continuity  x-velocity  y-velocity  z-velocity      energy           k       omega     time/iter
   243  2.6052e-03  2.2826e-03  7.2770e-04  1.2864e-01  2.6050e-03  2.6902e-04  1.8484e-04  0:00:07 1757
   244  2.4856e-03  2.1517e-03  7.2567e-04  1.2231e-01  2.4855e-03  2.6791e-04  1.8318e-04  0:00:05 1756
   245  2.3429e-03  2.0170e-03  7.1725e-04  1.1479e-01  2.3429e-03  2.6640e-04  1.8251e-04  0:05:55 1755
   246  2.1794e-03  1.8829e-03  7.0260e-04  1.0611e-01  2.1795e-03  2.6494e-04  1.8550e-04  0:04:44 1754
   247  1.9980e-03  1.7560e-03  6.8209e-04  9.6445e-02  1.9981e-03  2.6398e-04  1.8407e-04  0:03:47 1753
   248  1.8019e-03  1.6425e-03  6.5611e-04  8.5912e-02  1.8021e-03  2.6340e-04  1.7543e-04  0:03:02 1752
   249  1.5954e-03  1.5495e-03  6.2518e-04  7.4769e-02  1.5957e-03  2.6212e-04  1.7245e-04  0:02:25 1751
   250  1.3838e-03  1.4836e-03  5.9001e-04  6.3349e-02  1.3842e-03  2.6252e-04  1.7459e-04  0:01:56 1750
   251  1.1746e-03  1.4497e-03  5.5135e-04  5.2013e-02  1.1752e-03  2.6607e-04  1.8096e-04  0:01:33 1749
   252  9.7916e-04  1.4498e-03  5.1014e-04  4.1019e-02  9.7982e-04  2.7182e-04  1.8768e-04  0:01:14 1748
   253  8.1553e-04  1.4819e-03  4.6754e-04  3.1201e-02  8.1631e-04  2.8005e-04  1.9525e-04  0:00:59 1747

  iter  continuity  x-velocity  y-velocity  z-velocity      energy           k       omega     time/iter
   254  7.1099e-04  1.5407e-03  4.2499e-04  2.4321e-02  7.1183e-04  2.7651e-04  1.8792e-04  0:00:47 1746
   255  6.9303e-04  1.6190e-03  3.8425e-04  2.3145e-02  6.9382e-04  2.8578e-04  1.9625e-04  0:00:38 1745
   256  7.6377e-04  1.7095e-03  3.4749e-04  2.7876e-02  7.6438e-04  2.7618e-04  1.7923e-04  0:00:30 1744
   257  8.9589e-04  1.8049e-03  3.1731e-04  3.5591e-02  8.9631e-04  2.9129e-04  1.9121e-04  0:00:24 1743
   258  1.0587e-03  1.8996e-03  2.9645e-04  4.4229e-02  1.0590e-03  2.7796e-04  1.7071e-04  0:00:19 1742
   259  1.2315e-03  1.9886e-03  2.8711e-04  5.2561e-02  1.2316e-03  2.6408e-04  1.5818e-04  0:00:15 1741
   260  1.4019e-03  2.0682e-03  2.8989e-04  6.0812e-02  1.4019e-03  2.6375e-04  1.5043e-04  0:00:12 1740
   261  1.5623e-03  2.1356e-03  3.0358e-04  6.8305e-02  1.5622e-03  2.5667e-04  1.4520e-04  0:00:10 1739
   262  1.7077e-03  2.1888e-03  3.2556e-04  7.4676e-02  1.7076e-03  2.5150e-04  1.4410e-04  0:00:08 1738
   263  1.8348e-03  2.2263e-03  3.5277e-04  8.0131e-02  1.8346e-03  2.4774e-04  1.4346e-04  0:05:54 1737
   264  1.9411e-03  2.2474e-03  3.8246e-04  8.4637e-02  1.9408e-03  2.4409e-04  1.4639e-04  0:04:43 1736

  iter  continuity  x-velocity  y-velocity  z-velocity      energy           k       omega     time/iter
   265  2.0249e-03  2.2517e-03  4.1237e-04  8.6737e-02  2.0246e-03  2.4141e-04  1.4692e-04  0:03:46 1735
   266  2.0853e-03  2.2392e-03  4.4110e-04  8.8921e-02  2.0850e-03  2.3896e-04  1.4684e-04  0:03:01 1734
   267  2.1215e-03  2.2104e-03  4.6729e-04  9.0856e-02  2.1211e-03  2.3685e-04  1.4696e-04  0:02:25 1733
   268  2.1335e-03  2.1663e-03  4.9003e-04  9.1504e-02  2.1331e-03  2.3455e-04  1.4381e-04  0:01:56 1732
   269  2.1215e-03  2.1082e-03  5.0868e-04  9.1730e-02  2.1210e-03  2.3153e-04  1.4054e-04  0:01:32 1731
   270  2.0861e-03  2.0377e-03  5.2278e-04  9.0262e-02  2.0856e-03  2.2791e-04  1.3686e-04  0:01:14 1730
   271  2.0283e-03  1.9569e-03  5.3206e-04  8.8250e-02  2.0278e-03  2.2344e-04  1.3414e-04  0:00:59 1729
   272  1.9495e-03  1.8679e-03  5.3638e-04  8.5323e-02  1.9490e-03  2.1950e-04  1.3212e-04  0:00:47 1728
   273  1.8512e-03  1.7734e-03  5.3564e-04  9.8542e-02  1.8506e-03  2.1600e-04  1.3238e-04  0:00:38 1727
   274  1.7352e-03  1.6765e-03  5.2999e-04  1.1376e-01  1.7347e-03  2.1308e-04  1.3342e-04  0:00:30 1726
   275  1.6038e-03  1.5808e-03  5.1953e-04  1.2487e-01  1.6033e-03  2.1141e-04  1.3348e-04  0:00:24 1725

  iter  continuity  x-velocity  y-velocity  z-velocity      energy           k       omega     time/iter
   276  1.4594e-03  1.4898e-03  5.0458e-04  1.2327e-01  1.4588e-03  2.1012e-04  1.3230e-04  0:00:19 1724
   277  1.3047e-03  1.4077e-03  4.8546e-04  1.0663e-01  1.3042e-03  2.0948e-04  1.3197e-04  0:00:15 1723
   278  1.1432e-03  1.3384e-03  4.6259e-04  8.7770e-02  1.1425e-03  2.0904e-04  1.3355e-04  0:00:12 1722
   279  9.7868e-04  1.2857e-03  4.3649e-04  7.1001e-02  9.7804e-04  2.0871e-04  1.3594e-04  0:00:10 1721
   280  8.1685e-04  1.2522e-03  4.0779e-04  5.6094e-02  8.1615e-04  2.0854e-04  1.3789e-04  0:00:08 1720
   281  6.6609e-04  1.2393e-03  3.7720e-04  4.3112e-02  6.6532e-04  2.0877e-04  1.3678e-04  0:00:06 1719
   282  5.4064e-04  1.2463e-03  3.4559e-04  3.4092e-02  5.3977e-04  2.0863e-04  1.3515e-04  0:00:05 1718
   283  4.6344e-04  1.2708e-03  3.1406e-04  3.1381e-02  4.6250e-04  2.0820e-04  1.3187e-04  0:05:47 1717
   284  4.5762e-04  1.3092e-03  2.8380e-04  3.3658e-02  4.5673e-04  2.0729e-04  1.2576e-04  0:04:38 1716
   285  5.2093e-04  1.3573e-03  2.5642e-04  3.7659e-02  5.2019e-04  2.0613e-04  1.2035e-04  0:03:42 1715
   286  6.2696e-04  1.4108e-03  2.3376e-04  4.1479e-02  6.2637e-04  2.0443e-04  1.1566e-04  0:02:58 1714

  iter  continuity  x-velocity  y-velocity  z-velocity      energy           k       omega     time/iter
   287  7.5150e-04  1.4659e-03  2.1777e-04  4.2279e-02  7.5102e-04  2.0243e-04  1.1333e-04  0:02:22 1713
   288  8.8030e-04  1.5192e-03  2.1003e-04  5.0124e-02  8.7989e-04  2.0036e-04  1.1042e-04  0:01:54 1712
   289  1.0055e-03  1.5682e-03  2.1106e-04  6.0992e-02  1.0051e-03  1.9796e-04  1.0706e-04  0:01:31 1711
   290  1.1225e-03  1.6106e-03  2.2002e-04  6.3176e-02  1.1222e-03  1.9576e-04  1.0454e-04  0:01:13 1710
   291  1.2285e-03  1.6448e-03  2.3505e-04  5.4851e-02  1.2282e-03  1.9398e-04  1.0462e-04  0:00:58 1709
   292  1.3214e-03  1.6696e-03  2.5397e-04  5.0309e-02  1.3211e-03  1.9379e-04  1.0501e-04  0:00:46 1708
   293  1.4000e-03  1.6842e-03  2.7481e-04  5.1914e-02  1.3997e-03  1.9354e-04  1.0496e-04  0:00:37 1707
   294  1.4632e-03  1.6882e-03  2.9603e-04  5.4996e-02  1.4630e-03  1.9305e-04  1.0535e-04  0:00:30 1706
   295  1.5106e-03  1.6814e-03  3.1647e-04  5.9001e-02  1.5104e-03  1.9247e-04  1.0746e-04  0:00:24 1705
   296  1.5418e-03  1.6640e-03  3.3525e-04  6.3370e-02  1.5416e-03  1.9180e-04  1.0968e-04  0:00:19 1704
   297  1.5567e-03  1.6361e-03  3.5177e-04  6.7164e-02  1.5566e-03  1.9126e-04  1.1088e-04  0:00:15 1703

  iter  continuity  x-velocity  y-velocity  z-velocity      energy           k       omega     time/iter
   298  1.5556e-03  1.5987e-03  3.6558e-04  6.9598e-02  1.5554e-03  1.9079e-04  1.0963e-04  0:00:12 1702
   299  1.5386e-03  1.5526e-03  3.7633e-04  7.0971e-02  1.5385e-03  1.9051e-04  1.0708e-04  0:00:10 1701
   300  1.5064e-03  1.4987e-03  3.8383e-04  6.5876e-02  1.5063e-03  1.8995e-04  1.0654e-04  0:00:08 1700
   301  1.4597e-03  1.4385e-03  3.8797e-04  6.2271e-02  1.4596e-03  1.8874e-04  1.0695e-04  0:00:06 1699
   302  1.3992e-03  1.3735e-03  3.8871e-04  6.2578e-02  1.3991e-03  1.8715e-04  1.0937e-04  0:05:45 1698
   303  1.3261e-03  1.3056e-03  3.8607e-04  5.8841e-02  1.3260e-03  1.8583e-04  1.1152e-04  0:04:35 1697
   304  1.2414e-03  1.2370e-03  3.8014e-04  5.0351e-02  1.2413e-03  1.8451e-04  1.1066e-04  0:03:40 1696
   305  1.1465e-03  1.1700e-03  3.7104e-04  4.4681e-02  1.1464e-03  1.8347e-04  1.0558e-04  0:02:56 1695
   306  1.0428e-03  1.1074e-03  3.5899e-04  5.3233e-02  1.0428e-03  1.8204e-04  9.9510e-05  0:02:21 1694
   307  9.3219e-04  1.0521e-03  3.4422e-04  5.4792e-02  9.3212e-04  1.8051e-04  9.8897e-05  0:01:53 1693
   308  8.1654e-04  1.0068e-03  3.2703e-04  5.7048e-02  8.1647e-04  1.7920e-04  1.0084e-04  0:01:30 1692

  iter  continuity  x-velocity  y-velocity  z-velocity      energy           k       omega     time/iter
   309  6.9843e-04  9.7414e-04  3.0781e-04  5.8578e-02  6.9835e-04  1.7768e-04  1.0160e-04  0:01:12 1691
   310  5.8139e-04  9.5581e-04  2.8697e-04  5.8028e-02  5.8129e-04  1.7619e-04  1.0018e-04  0:00:58 1690
   311  4.7096e-04  9.5243e-04  2.6504e-04  4.7049e-02  4.7081e-04  1.7490e-04  9.9248e-05  0:00:46 1689
   312  3.7693e-04  9.6334e-04  2.4263e-04  4.2743e-02  3.7671e-04  1.7376e-04  9.7816e-05  0:00:37 1688
   313  3.1647e-04  9.8672e-04  2.2048e-04  5.3823e-02  3.1617e-04  1.7260e-04  9.7233e-05  0:00:29 1687
   314  3.0944e-04  1.0200e-03  1.9959e-04  7.1821e-02  3.0908e-04  1.7126e-04  9.6237e-05  0:00:24 1686
   315  3.5642e-04  1.0603e-03  1.8113e-04  7.9388e-02  3.5605e-04  1.6994e-04  9.4580e-05  0:00:19 1685
   316  4.3673e-04  1.1045e-03  1.6646e-04  6.9347e-02  4.3638e-04  1.6863e-04  9.3021e-05  0:00:15 1684
   317  5.3135e-04  1.1498e-03  1.5695e-04  6.1568e-02  5.3101e-04  1.6746e-04  9.1484e-05  0:00:12 1683
   318  6.2950e-04  1.1938e-03  1.5360e-04  6.1420e-02  6.2918e-04  1.6626e-04  9.0400e-05  0:00:10 1682
   319  7.2542e-04  1.2346e-03  1.5655e-04  6.5396e-02  7.2511e-04  1.6544e-04  8.9281e-05  0:00:08 1681

  iter  continuity  x-velocity  y-velocity  z-velocity      energy           k       omega     time/iter
   320  8.1572e-04  1.2706e-03  1.6499e-04  6.8075e-02  8.1542e-04  1.6458e-04  8.8403e-05  0:00:06 1680
   321  8.9821e-04  1.3004e-03  1.7750e-04  7.0274e-02  8.9791e-04  1.6368e-04  8.8703e-05  0:05:41 1679
   322  9.7134e-04  1.3231e-03  1.9251e-04  5.7735e-02  9.7105e-04  1.6284e-04  9.0394e-05  0:04:32 1678
   323  1.0340e-03  1.3380e-03  2.0871e-04  5.2437e-02  1.0337e-03  1.6192e-04  9.1441e-05  0:03:38 1677
   324  1.0853e-03  1.3448e-03  2.2505e-04  4.7845e-02  1.0851e-03  1.6138e-04  9.1836e-05  0:02:54 1676
   325  1.1248e-03  1.3431e-03  2.4072e-04  7.4111e-02  1.1245e-03  1.6107e-04  9.2185e-05  0:02:19 1675
   326  1.1520e-03  1.3333e-03  2.5511e-04  1.0391e-01  1.1517e-03  1.6058e-04  9.2487e-05  0:01:51 1674
   327  1.1666e-03  1.3154e-03  2.6777e-04  1.1436e-01  1.1664e-03  1.5997e-04  9.1172e-05  0:01:29 1673
   328  1.1688e-03  1.2899e-03  2.7837e-04  9.7267e-02  1.1685e-03  1.5919e-04  8.7992e-05  0:01:11 1672
   329  1.1586e-03  1.2575e-03  2.8666e-04  8.3393e-02  1.1584e-03  1.5831e-04  8.4499e-05  0:00:57 1671
   330  1.1364e-03  1.2191e-03  2.9246e-04  8.7727e-02  1.1362e-03  1.5730e-04  8.3026e-05  0:00:45 1670

  iter  continuity  x-velocity  y-velocity  z-velocity      energy           k       omega     time/iter
   331  1.1027e-03  1.1757e-03  2.9568e-04  9.5071e-02  1.1024e-03  1.5616e-04  8.3636e-05  0:00:36 1669
   332  1.0579e-03  1.1286e-03  2.9629e-04  9.7131e-02  1.0577e-03  1.5521e-04  8.2942e-05  0:00:29 1668
   333  1.0029e-03  1.0792e-03  2.9428e-04  9.0018e-02  1.0027e-03  1.5407e-04  8.2898e-05  0:00:23 1667
   334  9.3864e-04  1.0290e-03  2.8971e-04  8.3536e-02  9.3844e-04  1.5291e-04  8.3596e-05  0:00:19 1666
   335  8.6603e-04  9.7982e-04  2.8268e-04  7.3583e-02  8.6584e-04  1.5191e-04  8.3442e-05  0:00:15 1665
   336  7.8625e-04  9.3335e-04  2.7332e-04  6.1291e-02  7.8608e-04  1.5142e-04  8.2669e-05  0:00:12 1664
   337  7.0063e-04  8.9181e-04  2.6183e-04  1.1267e-01  7.0047e-04  1.5098e-04  8.2006e-05  0:00:09 1663
   338  6.1072e-04  8.5720e-04  2.4843e-04  1.8004e-01  6.1058e-04  1.5062e-04  8.0722e-05  0:00:08 1662
   339  5.1842e-04  8.3102e-04  2.3341e-04  1.9410e-01  5.1831e-04  1.5051e-04  7.9961e-05  0:00:06 1661
   340  4.2635e-04  8.1406e-04  2.1715e-04  1.7621e-01  4.2626e-04  1.5019e-04  8.0018e-05  0:05:37 1660
   341  3.3861e-04  8.0732e-04  2.0000e-04  1.4277e-01  3.3855e-04  1.4983e-04  8.0297e-05  0:04:29 1659

  iter  continuity  x-velocity  y-velocity  z-velocity      energy           k       omega     time/iter
   342  2.6286e-04  8.1060e-04  1.8248e-04  1.4357e-01  2.6282e-04  1.4948e-04  8.0052e-05  0:03:35 1658
   343  2.1390e-04  8.2263e-04  1.6518e-04  1.6344e-01  2.1390e-04  1.4902e-04  7.9749e-05  0:02:52 1657
   344  2.1052e-04  8.4183e-04  1.4889e-04  1.4175e-01  2.1055e-04  1.4850e-04  7.8837e-05  0:02:18 1656
   345  2.5206e-04  8.6634e-04  1.3453e-04  1.4055e-01  2.5209e-04  1.4789e-04  7.6545e-05  0:01:50 1655
   346  3.1826e-04  8.9419e-04  1.2323e-04  1.4243e-01  3.1828e-04  1.4714e-04  7.4712e-05  0:01:28 1654
   347  3.9342e-04  9.2330e-04  1.1608e-04  1.4392e-01  3.9342e-04  1.4621e-04  7.4076e-05  0:01:10 1653
   348  4.6968e-04  9.5183e-04  1.1385e-04  1.3820e-01  4.6967e-04  1.4520e-04  7.3826e-05  0:00:56 1652
   349  5.4313e-04  9.7839e-04  1.1658e-04  1.1554e-01  5.4311e-04  1.4428e-04  7.3710e-05  0:00:45 1651
   350  6.1152e-04  1.0019e-03  1.2350e-04  1.9318e-01  6.1149e-04  1.4354e-04  7.3065e-05  0:00:36 1650
   351  6.7343e-04  1.0213e-03  1.3342e-04  2.0537e-01  6.7338e-04  1.4284e-04  7.1969e-05  0:00:29 1649
   352  7.2784e-04  1.0358e-03  1.4513e-04  2.8196e-01  7.2778e-04  1.4224e-04  7.1108e-05  0:00:23 1648

  iter  continuity  x-velocity  y-velocity  z-velocity      energy           k       omega     time/iter
   353  7.7405e-04  1.0450e-03  1.5764e-04  3.0751e-01  7.7399e-04  1.4141e-04  7.0868e-05  0:00:18 1647
   354  8.1156e-04  1.0485e-03  1.7012e-04  2.5851e-01  8.1148e-04  1.4050e-04  7.0662e-05  0:00:15 1646
   355  8.4001e-04  1.0465e-03  1.8197e-04  2.1446e-01  8.3993e-04  1.3968e-04  7.0027e-05  0:00:12 1645
   356  8.5922e-04  1.0386e-03  1.9274e-04  2.2594e-01  8.5914e-04  1.3895e-04  6.9692e-05  0:00:09 1644
   357  8.6912e-04  1.0253e-03  2.0212e-04  1.9674e-01  8.6903e-04  1.3812e-04  6.9226e-05  0:05:36 1643
   358  8.6976e-04  1.0067e-03  2.0988e-04  1.9653e-01  8.6968e-04  1.3716e-04  6.9405e-05  0:04:29 1642
   359  8.6133e-04  9.8368e-04  2.1587e-04  2.0486e-01  8.6124e-04  1.3625e-04  6.9350e-05  0:03:35 1641
   360  8.4411e-04  9.5670e-04  2.1998e-04  2.1350e-01  8.4401e-04  1.3526e-04  6.8148e-05  0:02:52 1640
   361  8.1847e-04  9.2613e-04  2.2215e-04  2.1660e-01  8.1838e-04  1.3413e-04  6.7198e-05  0:02:17 1639
   362  7.8490e-04  8.9306e-04  2.2236e-04  1.8340e-01  7.8481e-04  1.3312e-04  6.6848e-05  0:01:50 1638
   363  7.4398e-04  8.5859e-04  2.2061e-04  1.5169e-01  7.4389e-04  1.3204e-04  6.5792e-05  0:01:28 1637

  iter  continuity  x-velocity  y-velocity  z-velocity      energy           k       omega     time/iter
   364  6.9636e-04  8.2361e-04  2.1695e-04  1.4625e-01  6.9626e-04  1.3082e-04  6.4830e-05  0:01:10 1636
   365  6.4279e-04  7.8928e-04  2.1147e-04  1.4379e-01  6.4269e-04  1.2980e-04  6.4208e-05  0:00:56 1635
   366  5.8409e-04  7.5673e-04  2.0428e-04  2.2941e-01  5.8399e-04  1.2881e-04  6.3862e-05  0:00:45 1634
   367  5.2121e-04  7.2777e-04  1.9554e-04  2.6314e-01  5.2110e-04  1.2825e-04  6.3856e-05  0:00:36 1633
   368  4.5522e-04  7.0334e-04  1.8543e-04  2.3726e-01  4.5510e-04  1.2787e-04  6.3587e-05  0:00:29 1632
   369  3.8741e-04  6.8445e-04  1.7414e-04  1.8980e-01  3.8727e-04  1.2765e-04  6.3228e-05  0:00:23 1631
   370  3.1949e-04  6.7132e-04  1.6189e-04  1.9860e-01  3.1933e-04  1.2725e-04  6.2760e-05  0:00:18 1630
   371  2.5406e-04  6.6489e-04  1.4897e-04  1.9030e-01  2.5387e-04  1.2695e-04  6.2084e-05  0:00:15 1629
   372  1.9588e-04  6.6537e-04  1.3573e-04  1.9473e-01  1.9563e-04  1.2686e-04  6.1408e-05  0:00:12 1628
   373  1.5452e-04  6.7181e-04  1.2262e-04  2.0188e-01  1.5420e-04  1.2662e-04  6.0616e-05  0:00:09 1627
   374  1.4457e-04  6.8271e-04  1.1016e-04  2.0819e-01  1.4422e-04  1.2632e-04  5.9641e-05  0:00:07 1626

  iter  continuity  x-velocity  y-velocity  z-velocity      energy           k       omega     time/iter
   375  1.6969e-04  6.9762e-04  9.9010e-05  1.5311e-01  1.6939e-04  1.2600e-04  5.8716e-05  0:00:06 1625
   376  2.1560e-04  7.1514e-04  8.9933e-05  1.4911e-01  2.1535e-04  1.2573e-04  5.8231e-05  0:05:30 1624
   377  2.6929e-04  7.3355e-04  8.3756e-05  1.4000e-01  2.6909e-04  1.2543e-04  5.7937e-05  0:04:24 1623
   378  3.2431e-04  7.5193e-04  8.1134e-05  1.6287e-01  3.2413e-04  1.2505e-04  5.7896e-05  0:03:31 1622
   379  3.7753e-04  7.6945e-04  8.2257e-05  2.2444e-01  3.7737e-04  1.2465e-04  5.7807e-05  0:02:48 1621
   380  4.2723e-04  7.8563e-04  8.6708e-05  2.5163e-01  4.2708e-04  1.2443e-04  5.7895e-05  0:02:15 1620
   381  4.7234e-04  7.9937e-04  9.3610e-05  2.1720e-01  4.7221e-04  1.2440e-04  5.8609e-05  0:01:48 1619
   382  5.1215e-04  8.0961e-04  1.0197e-04  1.8857e-01  5.1202e-04  1.2437e-04  5.9334e-05  0:01:26 1618
   383  5.4613e-04  8.1638e-04  1.1099e-04  1.9477e-01  5.4601e-04  1.2429e-04  5.9601e-05  0:01:09 1617
   384  5.7393e-04  8.2016e-04  1.2005e-04  2.1008e-01  5.7381e-04  1.2421e-04  5.9492e-05  0:00:55 1616
   385  5.9528e-04  8.2044e-04  1.2875e-04  2.2203e-01  5.9517e-04  1.2399e-04  5.8997e-05  0:00:44 1615

  iter  continuity  x-velocity  y-velocity  z-velocity      energy           k       omega     time/iter
   386  6.1005e-04  8.1652e-04  1.3675e-04  2.1985e-01  6.0995e-04  1.2354e-04  5.8141e-05  0:00:35 1614
   387  6.1820e-04  8.0934e-04  1.4380e-04  1.6058e-01  6.1810e-04  1.2279e-04  5.6898e-05  0:00:28 1613
   388  6.1975e-04  7.9887e-04  1.4972e-04  1.4114e-01  6.1965e-04  1.2208e-04  5.5479e-05  0:00:22 1612
   389  6.1483e-04  7.8491e-04  1.5436e-04  1.2261e-01  6.1474e-04  1.2143e-04  5.4284e-05  0:00:18 1611
   390  6.0363e-04  7.6765e-04  1.5762e-04  1.2348e-01  6.0354e-04  1.2063e-04  5.3579e-05  0:00:14 1610
   391  5.8641e-04  7.4843e-04  1.5948e-04  2.2943e-01  5.8633e-04  1.1971e-04  5.3366e-05  0:00:11 1609
   392  5.6351e-04  7.2792e-04  1.5994e-04  3.1865e-01  5.6343e-04  1.1865e-04  5.3447e-05  0:00:09 1608
   393  5.3530e-04  7.0616e-04  1.5901e-04  2.9199e-01  5.3524e-04  1.1760e-04  5.3665e-05  0:00:07 1607
   394  5.0225e-04  6.8255e-04  1.5671e-04  2.2774e-01  5.0219e-04  1.1653e-04  5.3750e-05  0:00:06 1606
   395  4.6487e-04  6.5968e-04  1.5305e-04  2.1146e-01  4.6482e-04  1.1551e-04  5.3815e-05  0:05:26 1605
   396  4.2373e-04  6.3905e-04  1.4812e-04  2.4612e-01  4.2368e-04  1.1467e-04  5.3397e-05  0:04:20 1604

  iter  continuity  x-velocity  y-velocity  z-velocity      energy           k       omega     time/iter
   397  3.7945e-04  6.2049e-04  1.4204e-04  2.8282e-01  3.7941e-04  1.1412e-04  5.2872e-05  0:03:28 1603
   398  3.3274e-04  6.0424e-04  1.3495e-04  2.3943e-01  3.3270e-04  1.1373e-04  5.2639e-05  0:02:46 1602
   399  2.8445e-04  5.9194e-04  1.2700e-04  2.1570e-01  2.8442e-04  1.1353e-04  5.2582e-05  0:02:13 1601
   400  2.3564e-04  5.8290e-04  1.1834e-04  1.7715e-01  2.3562e-04  1.1338e-04  5.2442e-05  0:01:46 1600
   401  1.8785e-04  5.7772e-04  1.0917e-04  1.5304e-01  1.8784e-04  1.1332e-04  5.1773e-05  0:01:25 1599
   402  1.4380e-04  5.7532e-04  9.9646e-05  1.3312e-01  1.4379e-04  1.1311e-04  5.0636e-05  0:01:08 1598
   403  1.0926e-04  5.7640e-04  9.0079e-05  1.5855e-01  1.0926e-04  1.1286e-04  4.9552e-05  0:00:54 1597
   404  9.5057e-05  5.8086e-04  8.0789e-05  3.1157e-01  9.5056e-05  1.1254e-04  4.8833e-05  0:00:43 1596
   405  1.0812e-04  5.8808e-04  7.2308e-05  3.6543e-01  1.0811e-04  1.1217e-04  4.8424e-05  0:00:35 1595
   406  1.3927e-04  5.9555e-04  6.5197e-05  3.4190e-01  1.3926e-04  1.1168e-04  4.7777e-05  0:00:28 1594
   407  1.7746e-04  6.0400e-04  6.0017e-05  2.7791e-01  1.7743e-04  1.1114e-04  4.7127e-05  0:00:22 1593

  iter  continuity  x-velocity  y-velocity  z-velocity      energy           k       omega     time/iter
   408  2.1712e-04  6.1386e-04  5.7245e-05  2.4588e-01  2.1709e-04  1.1059e-04  4.6613e-05  0:00:18 1592
   409  2.5572e-04  6.2428e-04  5.7135e-05  2.8977e-01  2.5569e-04  1.1001e-04  4.6191e-05  0:00:14 1591
   410  2.9196e-04  6.3384e-04  5.9553e-05  2.8157e-01  2.9192e-04  1.0934e-04  4.6007e-05  0:00:11 1590
   411  3.2505e-04  6.4123e-04  6.3975e-05  2.6092e-01  3.2500e-04  1.0865e-04  4.5639e-05  0:00:09 1589
   412  3.5446e-04  6.4830e-04  6.9756e-05  2.5317e-01  3.5441e-04  1.0797e-04  4.5372e-05  0:00:07 1588
   413  3.7981e-04  6.5437e-04  7.6233e-05  2.5380e-01  3.7976e-04  1.0745e-04  4.4989e-05  0:05:23 1587
   414  4.0083e-04  6.5664e-04  8.2903e-05  2.5951e-01  4.0078e-04  1.0685e-04  4.4563e-05  0:04:18 1586
   415  4.1734e-04  6.5640e-04  8.9308e-05  2.0000e-01  4.1728e-04  1.0620e-04  4.4161e-05  0:03:27 1585
   416  4.2924e-04  6.5404e-04  9.5213e-05  1.8204e-01  4.2918e-04  1.0547e-04  4.3711e-05  0:02:45 1584
   417  4.3647e-04  6.4955e-04  1.0041e-04  3.2895e-01  4.3642e-04  1.0471e-04  4.3135e-05  0:02:12 1583
   418  4.3906e-04  6.4287e-04  1.0484e-04  3.1418e-01  4.3900e-04  1.0399e-04  4.2337e-05  0:01:46 1582

  iter  continuity  x-velocity  y-velocity  z-velocity      energy           k       omega     time/iter
   419  4.3706e-04  6.3223e-04  1.0842e-04  2.6115e-01  4.3701e-04  1.0324e-04  4.1401e-05  0:01:24 1581
   420  4.3062e-04  6.2116e-04  1.1111e-04  3.2307e-01  4.3056e-04  1.0257e-04  4.0653e-05  0:01:07 1580
   421  4.1990e-04  6.0893e-04  1.1284e-04  3.2200e-01  4.1984e-04  1.0187e-04  4.0297e-05  0:00:54 1579
   422  4.0512e-04  5.9583e-04  1.1353e-04  2.5620e-01  4.0507e-04  1.0109e-04  3.9936e-05  0:00:43 1578
   423  3.8655e-04  5.8007e-04  1.1315e-04  2.8273e-01  3.8649e-04  1.0030e-04  3.9529e-05  0:00:34 1577
   424  3.6450e-04  5.6373e-04  1.1175e-04  2.8193e-01  3.6444e-04  9.9396e-05  3.8928e-05  0:00:28 1576
   425  3.3931e-04  5.4879e-04  1.0942e-04  2.9233e-01  3.3926e-04  9.8632e-05  3.8454e-05  0:00:22 1575
   426  3.1136e-04  5.3592e-04  1.0624e-04  3.0084e-01  3.1131e-04  9.7909e-05  3.8468e-05  0:00:18 1574
   427  2.8107e-04  5.2312e-04  1.0227e-04  3.1608e-01  2.8101e-04  9.7254e-05  3.8586e-05  0:00:14 1573
   428  2.4891e-04  5.1040e-04  9.7524e-05  2.6837e-01  2.4885e-04  9.6633e-05  3.8658e-05  0:00:11 1572
   429  2.1544e-04  5.0124e-04  9.2130e-05  2.0764e-01  2.1538e-04  9.5868e-05  3.8694e-05  0:05:23 1571

  iter  continuity  x-velocity  y-velocity  z-velocity      energy           k       omega     time/iter
   430  1.8130e-04  4.9362e-04  8.6192e-05  1.8335e-01  1.8123e-04  9.5404e-05  3.8740e-05  0:04:18 1570
   431  1.4737e-04  4.8838e-04  7.9824e-05  1.8169e-01  1.4730e-04  9.5061e-05  3.8620e-05  0:03:27 1569
   432  1.1502e-04  4.8295e-04  7.3083e-05  1.5073e-01  1.1493e-04  9.4885e-05  3.8280e-05  0:02:45 1568
   433  8.7070e-05  4.8114e-04  6.6280e-05  2.0711e-01  8.6960e-05  9.4645e-05  3.7932e-05  0:02:12 1567
   434  6.9210e-05  4.8162e-04  5.9649e-05  3.4524e-01  6.9074e-05  9.4379e-05  3.7590e-05  0:01:46 1566
   435  6.8984e-05  4.8423e-04  5.3563e-05  3.6783e-01  6.8848e-05  9.4060e-05  3.7172e-05  0:01:24 1565
   436  8.5291e-05  4.8448e-04  4.8142e-05  3.0904e-01  8.5178e-05  9.3650e-05  3.6924e-05  0:01:07 1564
   437  1.0986e-04  4.8584e-04  4.3712e-05  2.5114e-01  1.0977e-04  9.3188e-05  3.6569e-05  0:00:54 1563
   438  1.3697e-04  4.8992e-04  4.0733e-05  2.5398e-01  1.3690e-04  9.2699e-05  3.6266e-05  0:00:43 1562
   439  1.6404e-04  4.9652e-04  3.9595e-05  3.0062e-01  1.6397e-04  9.2145e-05  3.5904e-05  0:00:34 1561
   440  1.8980e-04  5.0251e-04  4.0414e-05  3.0425e-01  1.8974e-04  9.1653e-05  3.5396e-05  0:00:28 1560

  iter  continuity  x-velocity  y-velocity  z-velocity      energy           k       omega     time/iter
   441  2.1359e-04  5.0534e-04  4.2953e-05  2.6607e-01  2.1353e-04  9.1154e-05  3.4994e-05  0:00:22 1559
   442  2.3498e-04  5.1110e-04  4.6688e-05  2.3216e-01  2.3493e-04  9.0764e-05  3.4772e-05  0:00:18 1558
   443  2.5365e-04  5.1327e-04  5.1173e-05  2.1927e-01  2.5360e-04  9.0423e-05  3.4481e-05  0:00:14 1557
   444  2.6939e-04  5.1570e-04  5.5763e-05  2.0920e-01  2.6934e-04  8.9998e-05  3.4024e-05  0:00:11 1556
   445  2.8205e-04  5.1480e-04  6.0189e-05  2.0543e-01  2.8201e-04  8.9528e-05  3.3278e-05  0:00:09 1555
   446  2.9158e-04  5.1340e-04  6.4289e-05  3.6474e-01  2.9154e-04  8.9019e-05  3.2444e-05  0:00:07 1554
   447  2.9790e-04  5.1061e-04  6.8043e-05  4.2511e-01  2.9786e-04  8.8429e-05  3.1597e-05  0:05:16 1553
   448  3.0098e-04  5.0553e-04  7.1408e-05  3.3878e-01  3.0095e-04  8.7766e-05  3.0854e-05  0:04:13 1552
   449  3.0088e-04  4.9853e-04  7.4224e-05  3.4417e-01  3.0085e-04  8.7045e-05  3.0208e-05  0:03:22 1551
   450  2.9769e-04  4.9092e-04  7.6363e-05  3.0715e-01  2.9765e-04  8.6301e-05  2.9780e-05  0:02:42 1550
   451  2.9151e-04  4.8407e-04  7.7766e-05  2.5912e-01  2.9148e-04  8.5535e-05  2.9543e-05  0:02:09 1549

  iter  continuity  x-velocity  y-velocity  z-velocity      energy           k       omega     time/iter
   452  2.8248e-04  4.7646e-04  7.8396e-05  3.2335e-01  2.8245e-04  8.4779e-05  2.9282e-05  0:01:43 1548
   453  2.7077e-04  4.6608e-04  7.8311e-05  3.7222e-01  2.7074e-04  8.4032e-05  2.9164e-05  0:01:23 1547
   454  2.5660e-04  4.5736e-04  7.7677e-05  3.4732e-01  2.5658e-04  8.3340e-05  2.9169e-05  0:01:06 1546
   455  2.4018e-04  4.5177e-04  7.6486e-05  3.5037e-01  2.4015e-04  8.2697e-05  2.9085e-05  0:00:53 1545
   456  2.2173e-04  4.4320e-04  7.4689e-05  3.4898e-01  2.2171e-04  8.2201e-05  2.9025e-05  0:00:42 1544
   457  2.0159e-04  4.3565e-04  7.2191e-05  3.0160e-01  2.0158e-04  8.1827e-05  2.9053e-05  0:00:34 1543
   458  1.8005e-04  4.2943e-04  6.9078e-05  2.9184e-01  1.8003e-04  8.1459e-05  2.9285e-05  0:00:27 1542
   459  1.5747e-04  4.2328e-04  6.5466e-05  4.0844e-01  1.5745e-04  8.1230e-05  2.9404e-05  0:00:22 1541
   460  1.3424e-04  4.1943e-04  6.1407e-05  4.3698e-01  1.3423e-04  8.1062e-05  2.9433e-05  0:00:17 1540
   461  1.1085e-04  4.1475e-04  5.7117e-05  2.6218e-01  1.1084e-04  8.0859e-05  2.9402e-05  0:00:14 1539
   462  8.8074e-05  4.1077e-04  5.2680e-05  2.9372e-01  8.8068e-05  8.0744e-05  2.9299e-05  0:00:11 1538

  iter  continuity  x-velocity  y-velocity  z-velocity      energy           k       omega     time/iter
   463  6.7223e-05  4.0747e-04  4.8185e-05  3.7955e-01  6.7216e-05  8.0644e-05  2.9061e-05  0:00:09 1537
   464  5.1108e-05  4.0829e-04  4.3743e-05  3.5649e-01  5.1097e-05  8.0433e-05  2.8702e-05  0:00:07 1536
   465  4.4685e-05  4.0550e-04  3.9140e-05  3.2511e-01  4.4667e-05  8.0196e-05  2.8307e-05  0:00:06 1535
   466  5.1256e-05  4.0296e-04  3.4631e-05  3.1594e-01  5.1233e-05  7.9938e-05  2.7921e-05  0:05:11 1534
   467  6.6207e-05  4.0412e-04  3.0920e-05  3.2247e-01  6.6182e-05  7.9654e-05  2.7632e-05  0:04:09 1533
   468  8.4224e-05  4.1270e-04  2.8576e-05  3.7281e-01  8.4199e-05  7.9311e-05  2.7443e-05  0:03:19 1532
   469  1.0265e-04  4.1832e-04  2.7645e-05  4.1914e-01  1.0263e-04  7.8894e-05  2.7257e-05  0:02:39 1531
   470  1.2063e-04  4.2315e-04  2.8300e-05  3.4922e-01  1.2060e-04  7.8511e-05  2.7077e-05  0:02:07 1530
   471  1.3730e-04  4.2111e-04  2.9424e-05  2.9169e-01  1.3728e-04  7.8102e-05  2.6869e-05  0:01:42 1529
   472  1.5257e-04  4.2280e-04  3.1695e-05  2.6604e-01  1.5254e-04  7.7643e-05  2.6694e-05  0:01:21 1528
   473  1.6602e-04  4.3185e-04  3.4166e-05  3.5116e-01  1.6599e-04  7.7152e-05  2.6481e-05  0:01:05 1527

  iter  continuity  x-velocity  y-velocity  z-velocity      energy           k       omega     time/iter
   474  1.7749e-04  4.2998e-04  3.7028e-05  2.3332e-01  1.7746e-04  7.6613e-05  2.6197e-05  0:00:52 1526
   475  1.8695e-04  4.2693e-04  3.9907e-05  3.9708e-01  1.8692e-04  7.6049e-05  2.5910e-05  0:00:42 1525
   476  1.9431e-04  4.2108e-04  4.2960e-05  3.4108e-01  1.9428e-04  7.5411e-05  2.5573e-05  0:00:33 1524
   477  1.9951e-04  4.2135e-04  4.5901e-05  3.5712e-01  1.9948e-04  7.4766e-05  2.5259e-05  0:00:27 1523
   478  2.0247e-04  4.1537e-04  4.8189e-05  3.5765e-01  2.0244e-04  7.4158e-05  2.4872e-05  0:00:21 1522
   479  2.0332e-04  4.0800e-04  4.9888e-05  2.7112e-01  2.0329e-04  7.3543e-05  2.4397e-05  0:00:17 1521
   480  2.0212e-04  4.0409e-04  5.1273e-05  2.5348e-01  2.0209e-04  7.2841e-05  2.3873e-05  0:00:14 1520
   481  1.9890e-04  4.0655e-04  5.2436e-05  3.2143e-01  1.9887e-04  7.2114e-05  2.3360e-05  0:00:11 1519
   482  1.9366e-04  3.9935e-04  5.3221e-05  4.1814e-01  1.9363e-04  7.1393e-05  2.2984e-05  0:00:09 1518
   483  1.8667e-04  3.9531e-04  5.3861e-05  3.2146e-01  1.8664e-04  7.0678e-05  2.2807e-05  0:00:07 1517
   484  1.7785e-04  3.8936e-04  5.3691e-05  2.9472e-01  1.7783e-04  6.9984e-05  2.2670e-05  0:00:06 1516

  iter  continuity  x-velocity  y-velocity  z-velocity      energy           k       omega     time/iter
   485  1.6755e-04  3.8173e-04  5.3189e-05  3.1354e-01  1.6753e-04  6.9265e-05  2.2540e-05  0:00:04 1515
   486  1.5585e-04  3.8291e-04  5.1979e-05  3.2443e-01  1.5583e-04  6.8635e-05  2.2421e-05  0:05:06 1514
   487  1.4287e-04  3.7453e-04  5.0341e-05  3.7728e-01  1.4284e-04  6.8077e-05  2.2426e-05  0:04:05 1513
   488  1.2891e-04  3.6831e-04  4.8324e-05  4.9752e-01  1.2889e-04  6.7604e-05  2.2441e-05  0:03:16 1512
   489  1.1416e-04  3.6098e-04  4.6162e-05  4.0399e-01  1.1414e-04  6.7255e-05  2.2427e-05  0:02:37 1511
   490  9.8932e-05  3.6048e-04  4.3906e-05  3.0658e-01  9.8906e-05  6.6842e-05  2.2321e-05  0:02:05 1510
   491  8.3333e-05  3.4958e-04  4.1175e-05  3.6831e-01  8.3303e-05  6.6444e-05  2.2217e-05  0:01:40 1509
   492  6.7982e-05  3.4046e-04  3.8097e-05  2.9638e-01  6.7948e-05  6.6133e-05  2.2093e-05  0:01:20 1508
   493  5.3662e-05  3.4232e-04  3.4914e-05  2.6911e-01  5.3621e-05  6.5801e-05  2.1883e-05  0:01:04 1507
   494  4.1385e-05  3.3852e-04  3.1478e-05  3.1069e-01  4.1333e-05  6.5432e-05  2.1630e-05  0:00:51 1506
   495  3.3861e-05  3.3496e-04  2.8082e-05  3.7367e-01  3.3798e-05  6.5058e-05  2.1365e-05  0:00:41 1505

  iter  continuity  x-velocity  y-velocity  z-velocity      energy           k       omega     time/iter
   496  3.4249e-05  3.3650e-04  2.5638e-05  3.2867e-01  3.4188e-05  6.4670e-05  2.1225e-05  0:00:33 1504
   497  4.1349e-05  3.4950e-04  2.3679e-05  3.3384e-01  4.1300e-05  6.4294e-05  2.1131e-05  0:00:26 1503
   498  5.1839e-05  3.4239e-04  2.2742e-05  3.9117e-01  5.1799e-05  6.3861e-05  2.0975e-05  0:00:21 1502
   499  6.3707e-05  3.4765e-04  2.1531e-05  3.0659e-01  6.3675e-05  6.3413e-05  2.0784e-05  0:00:17 1501
   500  7.5456e-05  3.3699e-04  2.0804e-05  3.3173e-01  7.5429e-05  6.3015e-05  2.0579e-05  0:00:13 1500
   501  8.6902e-05  3.4688e-04  2.1088e-05  3.4154e-01  8.6878e-05  6.2588e-05  2.0390e-05  0:00:11 1499
   502  9.7308e-05  3.4916e-04  2.2264e-05  3.3518e-01  9.7287e-05  6.2138e-05  2.0147e-05  0:00:09 1498
   503  1.0659e-04  3.4702e-04  2.3681e-05  3.9881e-01  1.0657e-04  6.1715e-05  1.9831e-05  0:00:07 1497
   504  1.1463e-04  3.3609e-04  2.5177e-05  3.9730e-01  1.1461e-04  6.1304e-05  1.9455e-05  0:05:05 1496
   505  1.2148e-04  3.3255e-04  2.7058e-05  2.8604e-01  1.2146e-04  6.0849e-05  1.9026e-05  0:04:04 1495
   506  1.2692e-04  3.3885e-04  2.8982e-05  3.0822e-01  1.2691e-04  6.0307e-05  1.8555e-05  0:03:15 1494

  iter  continuity  x-velocity  y-velocity  z-velocity      energy           k       omega     time/iter
   507  1.3080e-04  3.2909e-04  3.0472e-05  3.1989e-01  1.3078e-04  5.9766e-05  1.8109e-05  0:02:36 1493
   508  1.3333e-04  3.2609e-04  3.1698e-05  2.1796e-01  1.3331e-04  5.9261e-05  1.7760e-05  0:02:04 1492
   509  1.3451e-04  3.3375e-04  3.3161e-05  2.0065e-01  1.3450e-04  5.8716e-05  1.7415e-05  0:01:39 1491
   510  1.3417e-04  3.3397e-04  3.4439e-05  2.5642e-01  1.3415e-04  5.8145e-05  1.7166e-05  0:01:20 1490
   511  1.3252e-04  3.2728e-04  3.6020e-05  2.8490e-01  1.3251e-04  5.7571e-05  1.6966e-05  0:01:04 1489
   512  1.2955e-04  3.4072e-04  3.6754e-05  3.0350e-01  1.2954e-04  5.7056e-05  1.6866e-05  0:00:51 1488
   513  1.2525e-04  3.3253e-04  3.7481e-05  2.7907e-01  1.2524e-04  5.6565e-05  1.6828e-05  0:00:41 1487
   514  1.1983e-04  3.3284e-04  3.7355e-05  2.8222e-01  1.1982e-04  5.6114e-05  1.6859e-05  0:00:32 1486
   515  1.1338e-04  3.2909e-04  3.7352e-05  3.0284e-01  1.1337e-04  5.5681e-05  1.6849e-05  0:00:26 1485
   516  1.0585e-04  3.3449e-04  3.6675e-05  3.3415e-01  1.0585e-04  5.5327e-05  1.6856e-05  0:00:21 1484
   517  9.7424e-05  3.1513e-04  3.5912e-05  2.8524e-01  9.7418e-05  5.5028e-05  1.6859e-05  0:00:17 1483

  iter  continuity  x-velocity  y-velocity  z-velocity      energy           k       omega     time/iter
   518  8.8461e-05  3.1690e-04  3.4692e-05  3.2918e-01  8.8455e-05  5.4774e-05  1.6833e-05  0:00:13 1482
   519  7.8803e-05  3.1962e-04  3.3185e-05  3.1771e-01  7.8798e-05  5.4601e-05  1.6718e-05  0:00:11 1481
   520  6.8654e-05  3.0651e-04  3.1390e-05  2.9695e-01  6.8649e-05  5.4445e-05  1.6581e-05  0:00:08 1480
   521  5.8388e-05  2.9616e-04  2.9093e-05  2.1356e-01  5.8382e-05  5.4228e-05  1.6429e-05  0:00:07 1479
   522  4.8512e-05  3.0314e-04  2.7122e-05  2.6077e-01  4.8505e-05  5.3984e-05  1.6218e-05  0:00:05 1478
   523  3.8962e-05  3.0244e-04  2.5227e-05  3.0024e-01  3.8953e-05  5.3867e-05  1.6084e-05  0:05:00 1477
   524  3.1132e-05  3.0151e-04  2.3846e-05  2.2050e-01  3.1121e-05  5.3714e-05  1.5927e-05  0:04:00 1476
   525  2.6183e-05  3.1806e-04  2.2278e-05  3.4808e-01  2.6170e-05  5.3543e-05  1.5744e-05  0:03:12 1475
   526  2.5535e-05  3.1743e-04  2.1983e-05  3.2900e-01  2.5519e-05  5.3336e-05  1.5517e-05  0:02:33 1474
   527  2.8982e-05  3.2453e-04  2.0487e-05  3.6787e-01  2.8969e-05  5.3089e-05  1.5326e-05  0:02:02 1473
   528  3.5274e-05  3.1058e-04  2.0188e-05  3.9551e-01  3.5264e-05  5.2865e-05  1.5114e-05  0:01:38 1472

  iter  continuity  x-velocity  y-velocity  z-velocity      energy           k       omega     time/iter
   529  4.2501e-05  3.1395e-04  1.8446e-05  3.7788e-01  4.2490e-05  5.2606e-05  1.4970e-05  0:01:18 1471
   530  4.9781e-05  3.0172e-04  1.7646e-05  3.6164e-01  4.9767e-05  5.2302e-05  1.4824e-05  0:01:03 1470
   531  5.7326e-05  3.0254e-04  1.7899e-05  3.5796e-01  5.7309e-05  5.1952e-05  1.4627e-05  0:00:50 1469
   532  6.4046e-05  2.9049e-04  1.7859e-05  4.8975e-01  6.4029e-05  5.1606e-05  1.4419e-05  0:00:40 1468
   533  7.0282e-05  2.7933e-04  1.8088e-05  5.3932e-01  7.0264e-05  5.1240e-05  1.4281e-05  0:00:32 1467
   534  7.5897e-05  2.8699e-04  1.8669e-05  4.7681e-01  7.5881e-05  5.0833e-05  1.4124e-05  0:00:26 1466
   535  8.0537e-05  2.9625e-04  1.9135e-05  3.9899e-01  8.0521e-05  5.0375e-05  1.3924e-05  0:00:20 1465
   536  8.4200e-05  2.9204e-04  1.9977e-05  3.4502e-01  8.4184e-05  4.9906e-05  1.3802e-05  0:00:16 1464
   537  8.7046e-05  2.8061e-04  2.1603e-05  2.6470e-01  8.7030e-05  4.9437e-05  1.3709e-05  0:00:13 1463
   538  8.9124e-05  2.9720e-04  2.3265e-05  2.8347e-01  8.9109e-05  4.9010e-05  1.3575e-05  0:00:10 1462
   539  8.9821e-05  2.8574e-04  2.4028e-05  2.8249e-01  8.9805e-05  4.8615e-05  1.3394e-05  0:00:08 1461

  iter  continuity  x-velocity  y-velocity  z-velocity      energy           k       omega     time/iter
   540  8.9989e-05  2.8482e-04  2.5129e-05  3.3414e-01  8.9973e-05  4.8199e-05  1.3241e-05  0:00:07 1460
   541  8.9092e-05  2.9955e-04  2.5702e-05  4.0621e-01  8.9078e-05  4.7779e-05  1.3113e-05  0:00:05 1459
   542  8.7155e-05  2.9673e-04  2.6150e-05  3.9741e-01  8.7142e-05  4.7371e-05  1.3060e-05  0:04:56 1458
   543  8.4474e-05  2.8224e-04  2.6540e-05  4.3675e-01  8.4461e-05  4.6938e-05  1.3041e-05  0:03:57 1457
   544  8.1153e-05  2.9134e-04  2.6859e-05  4.3158e-01  8.1140e-05  4.6518e-05  1.2937e-05  0:03:09 1456
   545  7.6701e-05  2.7755e-04  2.6617e-05  4.3455e-01  7.6687e-05  4.6155e-05  1.2788e-05  0:02:31 1455
   546  7.1923e-05  2.7351e-04  2.6323e-05  3.6340e-01  7.1908e-05  4.5797e-05  1.2658e-05  0:02:01 1454
   547  6.6465e-05  2.6998e-04  2.5565e-05  2.7448e-01  6.6450e-05  4.5456e-05  1.2522e-05  0:01:37 1453
   548  6.0282e-05  2.5642e-04  2.4180e-05  2.8415e-01  6.0268e-05  4.5123e-05  1.2323e-05  0:01:17 1452
   549  5.3968e-05  2.5639e-04  2.2880e-05  2.0196e-01  5.3955e-05  4.4890e-05  1.2134e-05  0:01:02 1451
   550  4.7511e-05  2.6247e-04  2.2094e-05  1.8139e-01  4.7497e-05  4.4642e-05  1.2021e-05  0:00:49 1450

  iter  continuity  x-velocity  y-velocity  z-velocity      energy           k       omega     time/iter
   551  4.1308e-05  2.8993e-04  2.2058e-05  2.6051e-01  4.1295e-05  4.4419e-05  1.1968e-05  0:00:39 1449
   552  3.4073e-05  2.6533e-04  2.1108e-05  2.5411e-01  3.4058e-05  4.4296e-05  1.1927e-05  0:00:32 1448
   553  2.9090e-05  2.7367e-04  2.1188e-05  2.6196e-01  2.9076e-05  4.4148e-05  1.1831e-05  0:00:25 1447
   554  2.3287e-05  2.7200e-04  1.9370e-05  2.7087e-01  2.3271e-05  4.3976e-05  1.1723e-05  0:00:20 1446
   555  2.0056e-05  2.6116e-04  1.8943e-05  2.4811e-01  2.0037e-05  4.3755e-05  1.1627e-05  0:00:16 1445
   556  1.9670e-05  2.7190e-04  1.8382e-05  3.0934e-01  1.9649e-05  4.3519e-05  1.1558e-05  0:00:13 1444
   557  2.1227e-05  2.8256e-04  1.7573e-05  2.6839e-01  2.1208e-05  4.3287e-05  1.1441e-05  0:00:10 1443
   558  2.4209e-05  2.5987e-04  1.6807e-05  3.5937e-01  2.4190e-05  4.3077e-05  1.1353e-05  0:00:08 1442
   559  2.9038e-05  2.4723e-04  1.6124e-05  3.1768e-01  2.9020e-05  4.2838e-05  1.1265e-05  0:00:07 1441
   560  3.4060e-05  2.5279e-04  1.5182e-05  3.0360e-01  3.4044e-05  4.2567e-05  1.1092e-05  0:04:53 1440
   561  3.8500e-05  2.2983e-04  1.3837e-05  3.5556e-01  3.8483e-05  4.2295e-05  1.0834e-05  0:03:54 1439

  iter  continuity  x-velocity  y-velocity  z-velocity      energy           k       omega     time/iter
   562  4.3401e-05  2.3293e-04  1.3533e-05  2.5041e-01  4.3385e-05  4.2002e-05  1.0632e-05  0:03:07 1438
   563  4.7810e-05  2.5917e-04  1.3926e-05  1.9731e-01  4.7797e-05  4.1712e-05  1.0472e-05  0:02:30 1437
   564  5.1662e-05  2.6718e-04  1.5649e-05  2.2330e-01  5.1651e-05  4.1446e-05  1.0347e-05  0:02:00 1436
   565  5.4516e-05  2.5517e-04  1.5940e-05  2.3087e-01  5.4506e-05  4.1165e-05  1.0259e-05  0:01:36 1435
   566  5.7677e-05  2.5668e-04  1.8332e-05  2.5695e-01  5.7669e-05  4.0813e-05  1.0094e-05  0:01:17 1434
   567  5.9486e-05  2.6462e-04  1.8502e-05  2.8151e-01  5.9478e-05  4.0544e-05  9.9387e-06  0:01:01 1433
   568  6.0711e-05  2.4968e-04  1.9111e-05  2.1926e-01  6.0701e-05  4.0312e-05  9.7567e-06  0:00:49 1432
   569  6.1575e-05  2.5186e-04  1.9770e-05  3.1276e-01  6.1566e-05  3.9959e-05  9.6268e-06  0:00:39 1431
   570  6.1649e-05  2.6788e-04  2.0308e-05  2.5067e-01  6.1641e-05  3.9568e-05  9.4876e-06  0:00:31 1430
   571  6.0706e-05  2.5174e-04  2.0449e-05  3.8937e-01  6.0699e-05  3.9209e-05  9.4524e-06  0:00:25 1429
   572  5.9490e-05  2.3704e-04  2.0478e-05  3.4424e-01  5.9484e-05  3.8850e-05  9.4453e-06  0:00:20 1428

  iter  continuity  x-velocity  y-velocity  z-velocity      energy           k       omega     time/iter
   573  5.7882e-05  2.4140e-04  2.0520e-05  3.4095e-01  5.7875e-05  3.8506e-05  9.3895e-06  0:00:16 1427
   574  5.5209e-05  2.1957e-04  1.9575e-05  3.7023e-01  5.5200e-05  3.8209e-05  9.3431e-06  0:00:13 1426
   575  5.2520e-05  2.1091e-04  1.9124e-05  3.3701e-01  5.2509e-05  3.7903e-05  9.2606e-06  0:00:10 1425
   576  4.9329e-05  2.2877e-04  1.8576e-05  2.7510e-01  4.9320e-05  3.7594e-05  9.2092e-06  0:00:08 1424
   577  4.5526e-05  2.3199e-04  1.8482e-05  2.5524e-01  4.5520e-05  3.7322e-05  9.1621e-06  0:00:07 1423
   578  4.1553e-05  2.4005e-04  1.8243e-05  2.4290e-01  4.1549e-05  3.7115e-05  9.1452e-06  0:04:50 1422
   579  3.7767e-05  2.3030e-04  1.9048e-05  2.4890e-01  3.7765e-05  3.6938e-05  9.1180e-06  0:03:52 1421
   580  3.4084e-05  2.5666e-04  1.9419e-05  3.2882e-01  3.4084e-05  3.6761e-05  9.0744e-06  0:03:05 1420
   581  2.9338e-05  2.4214e-04  1.9141e-05  2.2052e-01  2.9333e-05  3.6599e-05  9.0366e-06  0:02:28 1419
   582  2.4982e-05  2.2798e-04  1.7961e-05  3.3558e-01  2.4974e-05  3.6419e-05  8.9655e-06  0:01:58 1418
   583  2.1439e-05  2.3627e-04  1.7406e-05  2.5939e-01  2.1432e-05  3.6217e-05  8.8601e-06  0:01:35 1417

  iter  continuity  x-velocity  y-velocity  z-velocity      energy           k       omega     time/iter
   584  1.7402e-05  2.3355e-04  1.6681e-05  3.8673e-01  1.7397e-05  3.6026e-05  8.7858e-06  0:01:16 1416
   585  1.5296e-05  2.2653e-04  1.6324e-05  3.8036e-01  1.5292e-05  3.5832e-05  8.7324e-06  0:01:00 1415
   586  1.4983e-05  2.2169e-04  1.5629e-05  3.7738e-01  1.4975e-05  3.5629e-05  8.6084e-06  0:00:48 1414
   587  1.5458e-05  2.1616e-04  1.4183e-05  3.6529e-01  1.5443e-05  3.5466e-05  8.4455e-06  0:00:39 1413
   588  1.7767e-05  1.9614e-04  1.3394e-05  3.5443e-01  1.7745e-05  3.5288e-05  8.2467e-06  0:00:31 1412
   589  2.0863e-05  2.0176e-04  1.2036e-05  3.5497e-01  2.0843e-05  3.5050e-05  8.1150e-06  0:00:25 1411
   590  2.3746e-05  2.1027e-04  1.1302e-05  3.2999e-01  2.3731e-05  3.4788e-05  7.9486e-06  0:00:20 1410
   591  2.7335e-05  2.2128e-04  1.2400e-05  2.5447e-01  2.7326e-05  3.4531e-05  7.8463e-06  0:00:16 1409
   592  3.0449e-05  2.1437e-04  1.2985e-05  3.0976e-01  3.0442e-05  3.4297e-05  7.7761e-06  0:00:13 1408
   593  3.4247e-05  2.3162e-04  1.5144e-05  3.2481e-01  3.4241e-05  3.4055e-05  7.7187e-06  0:00:10 1407
   594  3.6346e-05  2.3451e-04  1.5317e-05  2.7669e-01  3.6338e-05  3.3827e-05  7.6791e-06  0:00:08 1406

  iter  continuity  x-velocity  y-velocity  z-velocity      energy           k       omega     time/iter
   595  3.8294e-05  2.2137e-04  1.5383e-05  2.5046e-01  3.8284e-05  3.3590e-05  7.6602e-06  0:00:06 1405
   596  4.0170e-05  2.1639e-04  1.5397e-05  3.0859e-01  4.0160e-05  3.3296e-05  7.6351e-06  0:04:46 1404
   597  4.1434e-05  2.2383e-04  1.5759e-05  3.3042e-01  4.1426e-05  3.2973e-05  7.6080e-06  0:03:49 1403
   598  4.2209e-05  2.1612e-04  1.6420e-05  4.4458e-01  4.2202e-05  3.2662e-05  7.5825e-06  0:03:03 1402
   599  4.2684e-05  2.1154e-04  1.6518e-05  4.0419e-01  4.2676e-05  3.2352e-05  7.5719e-06  0:02:26 1401
   600  4.2699e-05  2.1280e-04  1.6279e-05  3.9433e-01  4.2690e-05  3.2053e-05  7.5397e-06  0:01:57 1400
   601  4.2105e-05  1.9666e-04  1.5852e-05  4.1447e-01  4.2095e-05  3.1782e-05  7.4427e-06  0:01:33 1399
   602  4.1366e-05  1.8713e-04  1.5476e-05  3.8985e-01  4.1354e-05  3.1487e-05  7.3674e-06  0:01:15 1398
   603  3.9962e-05  1.8958e-04  1.4535e-05  4.8073e-01  3.9951e-05  3.1172e-05  7.3109e-06  0:01:00 1397
   604  3.8134e-05  1.8858e-04  1.4429e-05  3.6805e-01  3.8124e-05  3.0868e-05  7.2428e-06  0:00:48 1396
   605  3.6467e-05  1.9942e-04  1.4897e-05  3.1047e-01  3.6461e-05  3.0607e-05  7.2107e-06  0:00:38 1395

  iter  continuity  x-velocity  y-velocity  z-velocity      energy           k       omega     time/iter
   606  3.4658e-05  1.9780e-04  1.5901e-05  2.8669e-01  3.4653e-05  3.0366e-05  7.1664e-06  0:00:30 1394
   607  3.3018e-05  2.2927e-04  1.7408e-05  3.1925e-01  3.3014e-05  3.0149e-05  7.1493e-06  0:00:24 1393
   608  2.9731e-05  2.2075e-04  1.7030e-05  2.1878e-01  2.9725e-05  2.9972e-05  7.1537e-06  0:00:19 1392
   609  2.6869e-05  2.0664e-04  1.6224e-05  2.9927e-01  2.6862e-05  2.9795e-05  7.1320e-06  0:00:16 1391
   610  2.4153e-05  2.0220e-04  1.5857e-05  2.6665e-01  2.4146e-05  2.9580e-05  7.0895e-06  0:00:12 1390
   611  2.0784e-05  1.9713e-04  1.5529e-05  3.8454e-01  2.0777e-05  2.9365e-05  7.0339e-06  0:00:10 1389
   612  1.8238e-05  1.9724e-04  1.5789e-05  3.8534e-01  1.8233e-05  2.9159e-05  6.9649e-06  0:00:08 1388
   613  1.5892e-05  1.9830e-04  1.5187e-05  4.0527e-01  1.5886e-05  2.8961e-05  6.9071e-06  0:00:06 1387
   614  1.3045e-05  1.8659e-04  1.3701e-05  4.0158e-01  1.3034e-05  2.8778e-05  6.8566e-06  0:04:42 1386
   615  1.1993e-05  1.7753e-04  1.2831e-05  3.5458e-01  1.1976e-05  2.8594e-05  6.7966e-06  0:03:46 1385
   616  1.1697e-05  1.7510e-04  1.1617e-05  4.1929e-01  1.1679e-05  2.8385e-05  6.7082e-06  0:03:00 1384

  iter  continuity  x-velocity  y-velocity  z-velocity      energy           k       omega     time/iter
   617  1.1388e-05  1.7285e-04  1.0543e-05  4.7386e-01  1.1372e-05  2.8167e-05  6.6196e-06  0:02:24 1383
   618  1.2190e-05  1.6641e-04  1.0191e-05  3.0982e-01  1.2179e-05  2.7968e-05  6.5165e-06  0:01:55 1382
   619  1.5203e-05  1.7956e-04  1.0684e-05  3.1834e-01  1.5198e-05  2.7783e-05  6.4516e-06  0:01:32 1381
   620  1.8348e-05  1.8647e-04  1.2454e-05  2.8886e-01  1.8343e-05  2.7596e-05  6.3842e-06  0:01:14 1380
   621  2.1487e-05  2.2209e-04  1.4551e-05  2.6864e-01  2.1485e-05  2.7399e-05  6.3249e-06  0:00:59 1379
   622  2.2407e-05  2.0960e-04  1.3972e-05  2.1639e-01  2.2402e-05  2.7217e-05  6.2898e-06  0:00:47 1378
   623  2.4414e-05  1.9581e-04  1.3455e-05  3.4094e-01  2.4409e-05  2.7028e-05  6.2253e-06  0:00:38 1377
   624  2.6421e-05  2.0072e-04  1.3888e-05  3.2177e-01  2.6417e-05  2.6807e-05  6.1452e-06  0:00:30 1376
   625  2.7367e-05  1.8181e-04  1.4446e-05  4.4544e-01  2.7362e-05  2.6562e-05  6.0631e-06  0:00:24 1375
[...]
  1838  8.3965e-06  1.5394e-04  9.8432e-06  2.6199e-01  8.3979e-06  8.1757e-07  4.4727e-07  0:00:01  162
  1839  8.8818e-06  1.6292e-04  1.1449e-05  3.0602e-01  8.8844e-06  7.8181e-07  4.6032e-07  0:00:00  161
  1840  8.9174e-06  1.7258e-04  1.2237e-05  3.0142e-01  8.9221e-06  7.9263e-07  4.5615e-07  0:00:32  160
  1841  9.7546e-06  1.7638e-04  1.2982e-05  2.8340e-01  9.7582e-06  7.9508e-07  4.7258e-07  0:00:26  159
  1842  1.1618e-05  1.9634e-04  1.3570e-05  3.2448e-01  1.1623e-05  7.9135e-07  4.4734e-07  0:00:20  158
  1843  1.1372e-05  1.9404e-04  1.3245e-05  3.8417e-01  1.1376e-05  7.9169e-07  4.4217e-07  0:00:16  157
  1844  1.2099e-05  1.9054e-04  1.4367e-05  3.6134e-01  1.2101e-05  7.1951e-07  4.2317e-07  0:00:13  156
  1845  1.1081e-05  1.8912e-04  1.4664e-05  3.8115e-01  1.1082e-05  7.0027e-07  3.8546e-07  0:00:10  155
  1846  8.9228e-06  1.7123e-04  1.3473e-05  3.8778e-01  8.9217e-06  7.2098e-07  4.0022e-07  0:00:08  154
  1847  8.5775e-06  1.5033e-04  1.1987e-05  3.2068e-01  8.5733e-06  7.2612e-07  4.0722e-07  0:00:06  153
  1848  9.2413e-06  1.6110e-04  1.0693e-05  3.6833e-01  9.2400e-06  7.0168e-07  3.8417e-07  0:00:05  152

  iter  continuity  x-velocity  y-velocity  z-velocity      energy           k       omega     time/iter
  1849  8.9516e-06  1.6217e-04  1.0123e-05  2.5195e-01  8.9519e-06  7.0847e-07  4.0354e-07  0:00:04  151
  1850  7.9071e-06  1.5075e-04  9.4645e-06  2.2016e-01  7.9071e-06  7.3026e-07  4.1722e-07  0:00:03  150
  1851  8.4391e-06  1.5312e-04  9.7100e-06  2.5178e-01  8.4404e-06  7.9931e-07  4.4034e-07  0:00:03  149
  1852  8.7845e-06  1.6266e-04  1.1011e-05  2.9298e-01  8.7874e-06  7.8434e-07  4.5969e-07  0:00:02  148
  1853  8.9900e-06  1.7155e-04  1.2117e-05  2.8861e-01  8.9947e-06  7.9046e-07  4.5916e-07  0:00:02  147
  1854  9.3850e-06  1.7441e-04  1.2605e-05  2.8796e-01  9.3889e-06  8.1437e-07  4.7630e-07  0:00:01  146
  1855  1.1842e-05  1.9511e-04  1.3771e-05  3.4300e-01  1.1846e-05  7.8579e-07  4.5471e-07  0:00:01  145
  1856  1.1535e-05  1.9725e-04  1.3251e-05  3.9366e-01  1.1540e-05  7.9327e-07  4.3873e-07  0:00:01  144
  1857  1.2046e-05  1.8915e-04  1.4266e-05  3.5656e-01  1.2048e-05  7.3243e-07  4.2919e-07  0:00:01  143
  1858  1.1349e-05  1.9117e-04  1.4633e-05  3.6900e-01  1.1350e-05  6.9436e-07  3.8920e-07  0:00:01  142
  1859  8.9207e-06  1.7157e-04  1.3499e-05  3.8584e-01  8.9195e-06  7.0835e-07  3.9374e-07  0:00:00  141

  iter  continuity  x-velocity  y-velocity  z-velocity      energy           k       omega     time/iter
  1860  8.4817e-06  1.5028e-04  1.1978e-05  3.2697e-01  8.4774e-06  7.3302e-07  4.0954e-07  0:00:00  140
  1861  9.0411e-06  1.5896e-04  1.0590e-05  3.8154e-01  9.0394e-06  7.1326e-07  3.8809e-07  0:00:28  139
  1862  8.8189e-06  1.6039e-04  9.9437e-06  2.6717e-01  8.8189e-06  7.2667e-07  4.0965e-07  0:00:22  138
  1863  8.2115e-06  1.5327e-04  9.5650e-06  2.2946e-01  8.2120e-06  7.3420e-07  4.2199e-07  0:00:18  137
  1864  8.5543e-06  1.5358e-04  9.6971e-06  2.5599e-01  8.5556e-06  7.8170e-07  4.3693e-07  0:00:14  136
  1865  8.8835e-06  1.6404e-04  1.0764e-05  2.9469e-01  8.8866e-06  7.8536e-07  4.5528e-07  0:00:11  135
  1866  8.8703e-06  1.6933e-04  1.1955e-05  2.9877e-01  8.8746e-06  7.8719e-07  4.6338e-07  0:00:09  134
  1867  9.1316e-06  1.7446e-04  1.2248e-05  2.9599e-01  9.1361e-06  8.2458e-07  4.7468e-07  0:00:07  133
  1868  1.1591e-05  1.8986e-04  1.3577e-05  3.6268e-01  1.1595e-05  7.9345e-07  4.7039e-07  0:00:06  132
  1869  1.1858e-05  2.0241e-04  1.3230e-05  4.1049e-01  1.1863e-05  8.0143e-07  4.3553e-07  0:00:04  131
  1870  1.2001e-05  1.8948e-04  1.4176e-05  3.6497e-01  1.2002e-05  7.5194e-07  4.3887e-07  0:00:04  130

  iter  continuity  x-velocity  y-velocity  z-velocity      energy           k       omega     time/iter
  1871  1.1858e-05  1.9614e-04  1.4809e-05  3.7384e-01  1.1860e-05  6.9768e-07  3.9725e-07  0:00:03  129
  1872  9.0193e-06  1.7372e-04  1.3641e-05  3.8823e-01  9.0181e-06  6.9622e-07  3.8730e-07  0:00:02  128
  1873  8.4585e-06  1.5234e-04  1.2072e-05  3.2577e-01  8.4542e-06  7.4173e-07  4.1284e-07  0:00:02  127
  1874  8.9320e-06  1.5911e-04  1.0599e-05  3.7599e-01  8.9299e-06  7.3567e-07  4.0159e-07  0:00:01  126
  1875  8.8232e-06  1.6043e-04  9.9144e-06  2.6636e-01  8.8228e-06  7.5502e-07  4.1786e-07  0:00:01  125
  1876  8.7740e-06  1.5612e-04  9.9328e-06  2.3060e-01  8.7746e-06  7.5943e-07  4.3083e-07  0:00:01  124
  1877  8.6385e-06  1.5312e-04  9.7184e-06  2.6657e-01  8.6395e-06  7.4950e-07  4.2656e-07  0:00:01  123
  1878  8.9443e-06  1.6234e-04  1.0457e-05  2.9208e-01  8.9471e-06  7.7331e-07  4.4188e-07  0:00:01  122
  1879  8.2218e-06  1.6198e-04  1.1346e-05  2.8879e-01  8.2251e-06  7.7370e-07  4.6684e-07  0:00:00  121
  1880  8.8546e-06  1.7431e-04  1.1721e-05  3.1227e-01  8.8603e-06  8.3808e-07  4.7242e-07  0:00:24  120
  1881  1.0965e-05  1.8143e-04  1.3022e-05  3.8089e-01  1.0968e-05  8.1857e-07  4.9109e-07  0:00:19  119

  iter  continuity  x-velocity  y-velocity  z-velocity      energy           k       omega     time/iter
  1882  1.2495e-05  2.0778e-04  1.3455e-05  4.3405e-01  1.2501e-05  8.0311e-07  4.3904e-07  0:00:15  118
  1883  1.2067e-05  1.9286e-04  1.4137e-05  3.8256e-01  1.2069e-05  7.7695e-07  4.4146e-07  0:00:12  117
  1884  1.2549e-05  2.0238e-04  1.5193e-05  3.8060e-01  1.2552e-05  6.8670e-07  3.9591e-07  0:00:10  116
  1885  9.0720e-06  1.7316e-04  1.3819e-05  3.8740e-01  9.0706e-06  6.7035e-07  3.7524e-07  0:00:08  115
  1886  8.3575e-06  1.5152e-04  1.2136e-05  3.2478e-01  8.3528e-06  7.1891e-07  4.0400e-07  0:00:06  114
  1887  8.7008e-06  1.5697e-04  1.0483e-05  3.6918e-01  8.6983e-06  7.4426e-07  4.0500e-07  0:00:05  113
  1888  8.7035e-06  1.5996e-04  9.7732e-06  2.6462e-01  8.7031e-06  7.6383e-07  4.1394e-07  0:00:04  112
  1889  9.2378e-06  1.5825e-04  1.0200e-05  2.4733e-01  9.2388e-06  7.6207e-07  4.2657e-07  0:00:03  111
  1890  8.7136e-06  1.5318e-04  9.7182e-06  2.7176e-01  8.7147e-06  7.1872e-07  4.1240e-07  0:00:02  110
  1891  8.9996e-06  1.6108e-04  1.0203e-05  3.0807e-01  9.0022e-06  7.5787e-07  4.3070e-07  0:00:02  109
  1892  7.8780e-06  1.5944e-04  1.0873e-05  2.9522e-01  7.8812e-06  7.7046e-07  4.6791e-07  0:00:02  108

  iter  continuity  x-velocity  y-velocity  z-velocity      energy           k       omega     time/iter
  1893  8.8514e-06  1.7370e-04  1.1604e-05  2.9226e-01  8.8572e-06  8.4064e-07  4.7353e-07  0:00:01  107
  1894  1.0481e-05  1.7729e-04  1.2600e-05  3.4232e-01  1.0484e-05  8.4589e-07  4.9803e-07  0:00:01  106
  1895  1.2933e-05  2.0911e-04  1.3776e-05  4.0295e-01  1.2939e-05  7.9564e-07  4.4461e-07  0:00:01  105
  1896  1.2215e-05  1.9592e-04  1.4153e-05  3.7880e-01  1.2217e-05  7.7747e-07  4.3577e-07  0:00:01  104
  1897  1.2661e-05  2.0231e-04  1.5219e-05  3.9022e-01  1.2664e-05  6.9357e-07  3.9829e-07  0:00:00  103
  1898  9.2055e-06  1.7381e-04  1.3872e-05  3.8481e-01  9.2042e-06  6.5756e-07  3.7493e-07  0:00:00  102
  1899  8.2816e-06  1.5080e-04  1.2196e-05  3.1721e-01  8.2767e-06  7.0219e-07  3.9648e-07  0:00:00  101
  1900  8.5553e-06  1.5580e-04  1.0436e-05  3.6562e-01  8.5525e-06  7.4836e-07  4.0659e-07  0:00:20  100
  1901  8.4322e-06  1.5666e-04  9.6236e-06  2.5688e-01  8.4312e-06  7.7107e-07  4.1406e-07  0:00:16   99
  1902  9.3329e-06  1.5815e-04  1.0142e-05  2.4404e-01  9.3339e-06  7.6657e-07  4.2620e-07  0:00:13   98
  1903  8.8598e-06  1.5445e-04  9.7290e-06  2.8360e-01  8.8612e-06  7.0514e-07  4.0732e-07  0:00:10   97

  iter  continuity  x-velocity  y-velocity  z-velocity      energy           k       omega     time/iter
  1904  9.0904e-06  1.6096e-04  1.0053e-05  3.1484e-01  9.0930e-06  7.4138e-07  4.2690e-07  0:00:08   96
  1905  7.8145e-06  1.6034e-04  1.0550e-05  2.9736e-01  7.8182e-06  7.7406e-07  4.6677e-07  0:00:06   95
  1906  8.8442e-06  1.7291e-04  1.1564e-05  2.7532e-01  8.8500e-06  8.3837e-07  4.7739e-07  0:00:05   94
  1907  1.0191e-05  1.7663e-04  1.2307e-05  3.2506e-01  1.0195e-05  8.5755e-07  4.9973e-07  0:00:04   93
  1908  1.2928e-05  2.0634e-04  1.3803e-05  3.9300e-01  1.2934e-05  7.9603e-07  4.5511e-07  0:00:03   92
  1909  1.2424e-05  1.9994e-04  1.4075e-05  3.7352e-01  1.2427e-05  7.8496e-07  4.3430e-07  0:00:02   91
  1910  1.2620e-05  2.0164e-04  1.5107e-05  3.9423e-01  1.2623e-05  7.1035e-07  4.0745e-07  0:00:02   90
  1911  9.5828e-06  1.7754e-04  1.4004e-05  3.8688e-01  9.5823e-06  6.6102e-07  3.8252e-07  0:00:02   89
  1912  8.3024e-06  1.5256e-04  1.2334e-05  3.1474e-01  8.2975e-06  6.9280e-07  3.9156e-07  0:00:01   88
  1913  8.4880e-06  1.5703e-04  1.0504e-05  3.5885e-01  8.4851e-06  7.6003e-07  4.0976e-07  0:00:01   87
  1914  8.2747e-06  1.5583e-04  9.6132e-06  2.4415e-01  8.2732e-06  7.8460e-07  4.2225e-07  0:00:01   86

  iter  continuity  x-velocity  y-velocity  z-velocity      energy           k       omega     time/iter
  1915  9.2328e-06  1.5640e-04  1.0014e-05  2.2534e-01  9.2333e-06  7.9345e-07  4.3515e-07  0:00:01   85
  1916  9.2519e-06  1.5737e-04  9.9071e-06  2.6392e-01  9.2536e-06  7.2327e-07  4.1663e-07  0:00:00   84
  1917  9.2526e-06  1.6137e-04  9.9759e-06  3.0156e-01  9.2552e-06  7.1761e-07  4.2150e-07  0:00:00   83
  1918  7.8939e-06  1.6068e-04  1.0361e-05  2.9622e-01  7.8975e-06  7.6946e-07  4.5809e-07  0:00:00   82
  1919  8.3610e-06  1.6759e-04  1.1285e-05  2.8613e-01  8.3660e-06  8.3186e-07  4.8049e-07  0:00:00   81
  1920  9.8404e-06  1.7628e-04  1.1863e-05  3.3614e-01  9.8448e-06  8.7079e-07  4.9441e-07  0:00:00   80
  1921  1.2523e-05  1.9930e-04  1.3443e-05  4.0201e-01  1.2528e-05  8.0601e-07  4.7509e-07  0:00:16   79
  1922  1.2900e-05  2.0586e-04  1.4095e-05  3.7675e-01  1.2904e-05  7.9002e-07  4.3012e-07  0:00:13   78
  1923  1.2618e-05  2.0324e-04  1.5020e-05  3.8900e-01  1.2622e-05  7.3259e-07  4.1561e-07  0:00:10   77
  1924  1.0292e-05  1.8423e-04  1.4434e-05  3.8713e-01  1.0293e-05  6.5291e-07  3.8591e-07  0:00:08   76
  1925  8.3697e-06  1.5387e-04  1.2584e-05  3.1666e-01  8.3647e-06  6.7226e-07  3.8019e-07  0:00:06   75

  iter  continuity  x-velocity  y-velocity  z-velocity      energy           k       omega     time/iter
  1926  8.4271e-06  1.5821e-04  1.0585e-05  3.6363e-01  8.4240e-06  7.5554e-07  4.0856e-07  0:00:05   74
  1927  8.0752e-06  1.5523e-04  9.5792e-06  2.4999e-01  8.0733e-06  8.0328e-07  4.3315e-07  0:00:04   73
  1928  9.2637e-06  1.5793e-04  9.9708e-06  2.2916e-01  9.2642e-06  8.1480e-07  4.3854e-07  0:00:03   72
  1929  9.7957e-06  1.5991e-04  1.0329e-05  2.6846e-01  9.7974e-06  7.4248e-07  4.2045e-07  0:00:02   71
  1930  9.3486e-06  1.6103e-04  9.9517e-06  3.0642e-01  9.3511e-06  6.8116e-07  4.0813e-07  0:00:02   70
  1931  7.8801e-06  1.5852e-04  1.0088e-05  2.9156e-01  7.8833e-06  7.5560e-07  4.4365e-07  0:00:01   69
  1932  7.6608e-06  1.6157e-04  1.0721e-05  2.7908e-01  7.6651e-06  8.1897e-07  4.8320e-07  0:00:01   68
  1933  9.6731e-06  1.7612e-04  1.1582e-05  3.2883e-01  9.6782e-06  8.8069e-07  4.9474e-07  0:00:01   67
  1934  1.1925e-05  1.9253e-04  1.2922e-05  3.8938e-01  1.1930e-05  8.3797e-07  4.9013e-07  0:00:01   66
  1935  1.3505e-05  2.0961e-04  1.4388e-05  3.7208e-01  1.3509e-05  7.8750e-07  4.3722e-07  0:00:01   65
  1936  1.2759e-05  2.0697e-04  1.4998e-05  3.9329e-01  1.2763e-05  7.4708e-07  4.1242e-07  0:00:00   64

  iter  continuity  x-velocity  y-velocity  z-velocity      energy           k       omega     time/iter
  1937  1.0808e-05  1.8832e-04  1.4808e-05  3.7967e-01  1.0809e-05  6.5319e-07  3.8590e-07  0:00:00   63
  1938  8.3828e-06  1.5297e-04  1.2827e-05  3.2027e-01  8.3776e-06  6.5033e-07  3.7317e-07  0:00:00   62
  1939  8.3096e-06  1.5662e-04  1.0649e-05  3.6770e-01  8.3061e-06  7.2973e-07  3.9802e-07  0:00:00   61
  1940  7.8300e-06  1.5274e-04  9.4576e-06  2.4970e-01  7.8275e-06  8.0271e-07  4.3196e-07  0:00:00   60
  1941  8.9913e-06  1.5456e-04  9.7719e-06  2.2769e-01  8.9913e-06  8.1916e-07  4.3378e-07  0:00:00   59
  1942  1.0111e-05  1.6162e-04  1.0442e-05  2.6704e-01  1.0113e-05  7.3817e-07  4.1430e-07  0:00:12   58
  1943  9.4639e-06  1.6162e-04  9.8921e-06  2.9790e-01  9.4667e-06  6.5511e-07  3.9434e-07  0:00:09   57
  1944  7.9275e-06  1.5777e-04  9.9026e-06  2.7974e-01  7.9307e-06  7.3769e-07  4.3679e-07  0:00:07   56
  1945  7.3857e-06  1.6105e-04  1.0413e-05  2.7965e-01  7.3905e-06  8.2201e-07  4.8253e-07  0:00:06   55
  1946  9.6378e-06  1.7494e-04  1.1602e-05  3.4809e-01  9.6429e-06  8.7883e-07  4.9707e-07  0:00:04   54
  1947  1.1570e-05  1.9043e-04  1.2596e-05  4.1619e-01  1.1575e-05  8.5692e-07  4.9332e-07  0:00:04   53

  iter  continuity  x-velocity  y-velocity  z-velocity      energy           k       omega     time/iter
  1948  1.3719e-05  2.0850e-04  1.4570e-05  3.9595e-01  1.3723e-05  7.8115e-07  4.4440e-07  0:00:03   52
  1949  1.2943e-05  2.1002e-04  1.4951e-05  4.0184e-01  1.2947e-05  7.4766e-07  4.0781e-07  0:00:02   51
  1950  1.0731e-05  1.8692e-04  1.4755e-05  3.7228e-01  1.0732e-05  6.6376e-07  3.9145e-07  0:00:02   50
  1951  8.6103e-06  1.5539e-04  1.2993e-05  3.2553e-01  8.6058e-06  6.4445e-07  3.7671e-07  0:00:01   49
  1952  8.2637e-06  1.5696e-04  1.0759e-05  3.7796e-01  8.2601e-06  7.1712e-07  3.9169e-07  0:00:01   48
  1953  7.6927e-06  1.5260e-04  9.4559e-06  2.6450e-01  7.6900e-06  8.0967e-07  4.3448e-07  0:00:01   47
  1954  8.7600e-06  1.5208e-04  9.6860e-06  2.3990e-01  8.7594e-06  8.2806e-07  4.3794e-07  0:00:01   46
  1955  9.9930e-06  1.5972e-04  1.0278e-05  2.8444e-01  9.9947e-06  7.5485e-07  4.2046e-07  0:00:00   45
  1956  9.7116e-06  1.6378e-04  9.9475e-06  3.2774e-01  9.7147e-06  6.5708e-07  3.9823e-07  0:00:00   44
  1957  8.0750e-06  1.5838e-04  9.8257e-06  2.9003e-01  8.0782e-06  7.1898e-07  4.3381e-07  0:00:00   43
  1958  7.3565e-06  1.6235e-04  1.0300e-05  2.8096e-01  7.3615e-06  8.2297e-07  4.7890e-07  0:00:00   42

  iter  continuity  x-velocity  y-velocity  z-velocity      energy           k       omega     time/iter
  1959  9.4332e-06  1.7272e-04  1.1585e-05  3.3996e-01  9.4378e-06  8.7502e-07  5.0045e-07  0:00:00   41
  1960  1.1292e-05  1.9017e-04  1.2338e-05  4.2150e-01  1.1297e-05  8.6406e-07  4.9016e-07  0:00:00   40
  1961  1.3521e-05  2.0372e-04  1.4411e-05  4.1576e-01  1.3525e-05  7.8561e-07  4.5883e-07  0:00:00   39
  1962  1.3251e-05  2.1468e-04  1.4875e-05  4.1485e-01  1.3256e-05  7.5514e-07  4.0445e-07  0:00:08   38
  1963  1.0662e-05  1.8724e-04  1.4707e-05  3.7363e-01  1.0663e-05  6.8177e-07  4.0098e-07  0:00:06   37
  1964  9.1178e-06  1.6106e-04  1.3392e-05  3.3388e-01  9.1146e-06  6.4838e-07  3.8484e-07  0:00:05   36
  1965  8.3158e-06  1.5902e-04  1.1004e-05  3.7451e-01  8.3122e-06  7.0462e-07  3.8494e-07  0:00:04   35
  1966  7.6360e-06  1.5432e-04  9.5549e-06  2.5449e-01  7.6331e-06  8.1793e-07  4.3687e-07  0:00:03   34
  1967  8.6268e-06  1.5190e-04  9.6984e-06  2.3432e-01  8.6258e-06  8.4680e-07  4.4931e-07  0:00:02   33
  1968  9.9687e-06  1.5934e-04  1.0220e-05  2.8004e-01  9.9700e-06  7.8236e-07  4.2786e-07  0:00:02   32
  1969  1.0177e-05  1.6643e-04  1.0248e-05  3.2257e-01  1.0180e-05  6.8102e-07  4.0645e-07  0:00:01   31

  iter  continuity  x-velocity  y-velocity  z-velocity      energy           k       omega     time/iter
  1970  8.1807e-06  1.5818e-04  9.8118e-06  2.9851e-01  8.1839e-06  6.8693e-07  4.2321e-07  0:00:01   30
  1971  7.2686e-06  1.6082e-04  1.0220e-05  2.8452e-01  7.2733e-06  8.1041e-07  4.6576e-07  0:00:01   29
  1972  8.7326e-06  1.6567e-04  1.1173e-05  3.5588e-01  8.7363e-06  8.6206e-07  5.0281e-07  0:00:01   28
  1973  1.0975e-05  1.8985e-04  1.1966e-05  4.4828e-01  1.0981e-05  8.7397e-07  4.8652e-07  0:00:00   27
  1974  1.2999e-05  1.9595e-04  1.3950e-05  4.4313e-01  1.3002e-05  8.0700e-07  4.7921e-07  0:00:00   26
  1975  1.3837e-05  2.1977e-04  1.4994e-05  4.4289e-01  1.3843e-05  7.5701e-07  4.0648e-07  0:00:00   25
  1976  1.0721e-05  1.9055e-04  1.4700e-05  3.8053e-01  1.0723e-05  7.0333e-07  4.0452e-07  0:00:00   24
  1977  9.8600e-06  1.6861e-04  1.4077e-05  3.2597e-01  9.8583e-06  6.3948e-07  3.8499e-07  0:00:00   23
  1978  8.3269e-06  1.5840e-04  1.1343e-05  3.8612e-01  8.3229e-06  6.7940e-07  3.7260e-07  0:00:05   22
  1979  7.5144e-06  1.5354e-04  9.5856e-06  2.5309e-01  7.5110e-06  7.9751e-07  4.2960e-07  0:00:03   21
  1980  8.3686e-06  1.4968e-04  9.5817e-06  2.2652e-01  8.3670e-06  8.4892e-07  4.5224e-07  0:00:03   20

  iter  continuity  x-velocity  y-velocity  z-velocity      energy           k       omega     time/iter
  1981  9.8471e-06  1.5881e-04  1.0099e-05  2.8545e-01  9.8482e-06  7.9257e-07  4.2494e-07  0:00:02   19
  1982  1.0562e-05  1.6831e-04  1.0523e-05  3.4120e-01  1.0565e-05  6.8569e-07  4.0331e-07  0:00:02   18
  1983  8.2816e-06  1.5821e-04  9.7920e-06  3.0521e-01  8.2849e-06  6.5565e-07  4.0954e-07  0:00:01   17
  1984  7.1889e-06  1.5943e-04  1.0179e-05  2.7356e-01  7.1934e-06  7.9657e-07  4.5470e-07  0:00:01   16
  1985  8.2450e-06  1.6256e-04  1.0891e-05  3.2425e-01  8.2485e-06  8.5835e-07  5.0355e-07  0:00:01   15
  1986  1.0902e-05  1.8926e-04  1.1955e-05  4.0481e-01  1.0908e-05  8.7698e-07  4.8660e-07  0:00:00   14
  1987  1.2569e-05  1.9165e-04  1.3588e-05  3.9080e-01  1.2572e-05  8.3297e-07  4.8639e-07  0:00:00   13
  1988  1.4275e-05  2.2145e-04  1.5247e-05  4.0837e-01  1.4281e-05  7.5004e-07  4.1070e-07  0:00:00   12
  1989  1.0880e-05  1.9366e-04  1.4731e-05  3.8169e-01  1.0882e-05  7.0447e-07  3.9879e-07  0:00:00   11
  1990  9.9418e-06  1.6888e-04  1.4317e-05  3.0567e-01  9.9401e-06  6.4381e-07  3.8667e-07  0:00:00   10
  1991  8.4246e-06  1.5905e-04  1.1575e-05  3.7228e-01  8.4210e-06  6.6650e-07  3.7121e-07  0:00:00    9

  iter  continuity  x-velocity  y-velocity  z-velocity      energy           k       omega     time/iter
  1992  7.4242e-06  1.5297e-04  9.6413e-06  2.5273e-01  7.4206e-06  7.8132e-07  4.2269e-07  0:00:00    8
  1993  8.1957e-06  1.4834e-04  9.5223e-06  2.2863e-01  8.1938e-06  8.4915e-07  4.5242e-07  0:00:00    7
  1994  9.6088e-06  1.5580e-04  9.9796e-06  2.7333e-01  9.6094e-06  7.9972e-07  4.2466e-07  0:00:00    6
  1995  1.0707e-05  1.6866e-04  1.0581e-05  3.2609e-01  1.0710e-05  6.8787e-07  4.0167e-07  0:00:00    5
  1996  8.4495e-06  1.5925e-04  9.7795e-06  3.0795e-01  8.4530e-06  6.3863e-07  4.0161e-07  0:00:00    4
  1997  7.1882e-06  1.5913e-04  1.0193e-05  2.6883e-01  7.1927e-06  7.8050e-07  4.5098e-07  0:00:00    3
  1998  8.0192e-06  1.6291e-04  1.0773e-05  3.1272e-01  8.0230e-06  8.6194e-07  5.0256e-07  0:00:00    2
  1999  1.0835e-05  1.8834e-04  1.2056e-05  3.8676e-01  1.0841e-05  8.7496e-07  4.8931e-07  0:00:00    1
  2000  1.2288e-05  1.9052e-04  1.3367e-05  3.7884e-01  1.2292e-05  8.4361e-07  4.8877e-07  0:00:00    0

> 
adjoint/                parallel/               server/
define/                 parametric-study/       solve/
display/                plot/                   surface/
exit                    preferences/            turbo-workflow/
file/                   print-license-usage     views/
mesh/                   report/

> /file/write-case-data project1
Fast-loading "C:\PROGRA~1\ANSYSI~1\v231\fluent\fluent23.1.0\\addons\afd\lib\hdfio.bin"
Done.

Writing to Engs-30669:"C:\Users\kebl7595\Desktop\CFD\Runs\Viscous\0 degrees\project1.cas.h5" in NODE0 mode and compression level 1 ...
       12996 cells,     1 zone  ...
       43722 faces,     8 zones ...
       17864 nodes,     1 zone  ...
  Done.
Done.

Writing to Engs-30669:"C:\Users\kebl7595\Desktop\CFD\Runs\Viscous\0 degrees\project1.dat.h5" in NODE0 mode and compression level 1 ...
  Writing results.
Done.

> /file/export/ascii "./surface.dat" wing te () no pressure mach-number quit no

Writing "./surface.dat"...

Writing information to ascii file ...
Done.


> /report/forces/wall-forces y 0 1 0 y "Lift"

> /report/forces/wall-forces y 1 0 0 y "Drag"

> /exit

Posting ANSYS Product Improvement Program performance data 
Done.
Auto-Transcript Stop Time:  10:30:22, 21 May 2024 GMT Daylight Time 
Total Transcript Time: 1 Minute 55 Second.
