Auto-Transcript Start Time:  10:10:04, 22 May 2024 GMT Daylight Time 
Current Directory: "C:\Users\kebl7595\Desktop\CFD\Runs\Flap\24 degree"

              Welcome to ANSYS Fluent 2023 R1

              Copyright 1987-2023 ANSYS, Inc. All Rights Reserved.
              Unauthorized use, distribution or duplication is prohibited.
              This product is subject to U.S. laws governing export and re-export.
              For full Legal Notice, see documentation.

Build Time: Nov 28 2022 09:52:02 EST  Build Id: 10208  
 
Connected License Server List:	1055@ansyslic.eng.ox.ac.uk

*********************************************
Info: Your license enables 4-way parallel execution.
For faster simulations, please start the application with the appropriate parallel options.
*********************************************


     --------------------------------------------------------------
     This is an academic version of ANSYS FLUENT. Usage of this product
     license is limited to the terms and conditions specified in your ANSYS
     license form, additional terms section.
     --------------------------------------------------------------
Host spawning Node 0 on machine "Engs-30669" (win64).

------------------------------------------------------------------------------------
ID    Hostname    Core  O.S.         PID    Vendor                                 
------------------------------------------------------------------------------------
n0    Engs-30669  1/32  Windows-x64  20212  13th Gen Intel(R) Core(TM) i9-13900    
host  Engs-30669        Windows-x64  15484  13th Gen Intel(R) Core(TM) i9-13900    

MPI Option Selected: intel
------------------------------------------------------------------------------------

Cleanup script file is C:\\Users\\kebl7595\\Desktop\\CFD\\Runs\\Flap\\24 degree\\cleanup-fluent-Engs-30669-15484.bat

Posting ANSYS Product Improvement Program startup data
Done.

Reading journal file C:/Users/kebl7595/Desktop/CFD/Runs/Flap/24 degree/project1.jou...

> /file/set-batch-options no no no 

> 
define/                 parametric-study/       solve/
display/                plot/                   surface/
exit                    preferences/            switch-to-meshing-mode
file/                   print-license-usage     turbo-workflow/
mesh/                   report/                 views/
parallel/               server/

> /file/import/cgns/mesh  "./project1.cgns"
Engs-30669 has other FLUENT parallel processes running.                       Process affinity not being set.

Importing "./project1.cgns"

Opening library "C:\\PROGRA~1\\ANSYSI~1\\v231\\fluent\\fluent23.1.0\\vki\\win64\\devtools4.4.6.dll"... done.

Read    33000 nodes
   24072 hexahedral cells, zone  1
   17404 quadrilateral wall faces, zone  2.
   63040 quadrilateral interior faces, zone  3.
     474 quadrilateral interface faces, zone  4.

Building...
     mesh
     materials,
     interface,
     domains,
     zones,
	interface-default_subface
	default_interior-1
	default_subface
	default
     parallel,
The automatic selection for flux type has changed to Rhie-Chow: momentum based.

Done.


> 
adjoint/                parallel/               server/
define/                 parametric-study/       solve/
display/                plot/                   surface/
exit                    preferences/            turbo-workflow/
file/                   print-license-usage     views/
mesh/                   report/

> /define/models/solver/density-based-implicit yes

> 
adjoint/                parallel/               server/
define/                 parametric-study/       solve/
display/                plot/                   surface/
exit                    preferences/            turbo-workflow/
file/                   print-license-usage     views/
mesh/                   report/

> /define/models/energy? yes yes invalid command [yes]
yes

> /define/models/viscous/kw-standard? yes

> 
adjoint/                parallel/               server/
define/                 parametric-study/       solve/
display/                plot/                   surface/
exit                    preferences/            turbo-workflow/
file/                   print-license-usage     views/
mesh/                   report/

> /define/materials/change-create air air air is a fluid
yes 
Density
ideal-gas no data required.

no no no no no no

> 
adjoint/                parallel/               server/
define/                 parametric-study/       solve/
display/                plot/                   surface/
exit                    preferences/            turbo-workflow/
file/                   print-license-usage     views/
mesh/                   report/

> /mesh/modify-zones/sep-face-zone-angle 2 90 yes

 8024 faces in contiguous region 0
 441 faces in contiguous region 1
 618 faces in contiguous region 2
 8024 faces in contiguous region 3
 297 faces in contiguous region 4
 Separates zone 2 into 5 zone(s).
Updating new zone information...
   created new zone default_subface:009 from default_subface
   created new zone default_subface:008 from default_subface
   created new zone default_subface:007 from default_subface
   created new zone default_subface:006 from default_subface
done.

> 
adjoint/                parallel/               server/
define/                 parametric-study/       solve/
display/                plot/                   surface/
exit                    preferences/            turbo-workflow/
file/                   print-license-usage     views/
mesh/                   report/

> /define/boundary-conditions/zone-name  6 wing

> /define/boundary-conditions/zone-name  2 sym1

> /define/boundary-conditions/zone-name  8 sym2

> 
adjoint/                parallel/               server/
define/                 parametric-study/       solve/
display/                plot/                   surface/
exit                    preferences/            turbo-workflow/
file/                   print-license-usage     views/
mesh/                   report/

> /define/boundary-conditions/zone-name  7 far1

> /define/boundary-conditions/zone-name 9 far2

> 
adjoint/                parallel/               server/
define/                 parametric-study/       solve/
display/                plot/                   surface/
exit                    preferences/            turbo-workflow/
file/                   print-license-usage     views/
mesh/                   report/

> /define/boundary-conditions/zone-type  7 pressure-far-field

> /define/boundary-conditions/zone-type 9 pressure-far-field

> /define/boundary-conditions/zone-type  2 symmetry

> /define/boundary-conditions/zone-type  8 symmetry

> 
adjoint/                parallel/               server/
define/                 parametric-study/       solve/
display/                plot/                   surface/
exit                    preferences/            turbo-workflow/
file/                   print-license-usage     views/
mesh/                   report/

> /define/boundary-conditions/pressure-far-field (far2 far1)
far1 no 0 no 0.1 no 300 yes no 0.91355 no -0.40674 no 0. no yes 5 0.02

> /define/boundary-conditions/pressure-far-field (far2 far1)
far2 no 0 no 0.1 no 300 yes no 0.91355 no -0.40674 no 0. no yes 5 0.02

> 
adjoint/                parallel/               server/
define/                 parametric-study/       solve/
display/                plot/                   surface/
exit                    preferences/            turbo-workflow/
file/                   print-license-usage     views/
mesh/                   report/

> /solve/initialize/compute-defaults/pressure-far-field (far2 far1)
far1

> /solve/initialize/initialize-flow

> 
adjoint/                parallel/               server/
define/                 parametric-study/       solve/
display/                plot/                   surface/
exit                    preferences/            turbo-workflow/
file/                   print-license-usage     views/
mesh/                   report/

> /solve/monitors/residual/convergence-criteria 1.e-9 1.e-9 1.e-9 1.e-9 1.e-9 1.e-9 1.e-9

> /solve/iterate 2000

  iter  continuity  x-velocity  y-velocity  z-velocity      energy           k       omega     time/iter
     1  1.0000e+00  1.0000e+00  1.0000e+00  1.0000e+00  1.0000e+00  4.3000e-02  4.9226e-02  0:00:00 1999
     2  4.6090e-01  2.5768e-01  2.7659e-01  1.0000e+00  4.6328e-01  3.7999e-02  3.4557e-02  0:33:18 1998
     3  2.0975e-01  1.4525e-01  1.7471e-01  1.0000e+00  2.1004e-01  3.3810e-02  2.8812e-02  0:33:17 1997
     4  1.5073e-01  8.4227e-02  1.1525e-01  9.4169e-01  1.5130e-01  3.0435e-02  2.5510e-02  0:26:37 1996
     5  1.2346e-01  5.7864e-02  9.2643e-02  9.8230e-01  1.2429e-01  2.7731e-02  2.3569e-02  0:21:17 1995
     6  1.0531e-01  4.0852e-02  7.8758e-02  9.3424e-01  1.0609e-01  2.5410e-02  2.1958e-02  0:17:01 1994
     7  9.0720e-02  2.7701e-02  6.8139e-02  9.2925e-01  9.1318e-02  2.3381e-02  2.0556e-02  0:20:15 1993
     8  8.1656e-02  1.9111e-02  6.1149e-02  9.1118e-01  8.2153e-02  2.1691e-02  1.9264e-02  0:16:11 1992
     9  7.4642e-02  1.4963e-02  5.7542e-02  9.5675e-01  7.5086e-02  2.0233e-02  1.8132e-02  0:12:57 1991
    10  6.7597e-02  1.3709e-02  5.6538e-02  9.9144e-01  6.7979e-02  1.8970e-02  1.7116e-02  0:16:59 1990
    11  6.1580e-02  1.3444e-02  5.7774e-02  9.5510e-01  6.1901e-02  1.7868e-02  1.6204e-02  0:13:35 1989

  iter  continuity  x-velocity  y-velocity  z-velocity      energy           k       omega     time/iter
    12  5.7175e-02  1.3144e-02  6.0653e-02  8.5704e-01  5.7441e-02  1.6911e-02  1.5372e-02  0:10:52 1988
    13  5.4823e-02  1.2515e-02  6.4873e-02  7.9867e-01  5.5052e-02  1.6106e-02  1.4636e-02  0:15:18 1987
    14  5.4291e-02  1.1551e-02  6.9741e-02  8.2000e-01  5.4500e-02  1.5417e-02  1.4001e-02  0:12:14 1986
    15  5.5217e-02  1.0687e-02  7.4131e-02  9.0509e-01  5.5416e-02  1.4833e-02  1.3410e-02  0:09:47 1985
    16  5.7331e-02  1.0321e-02  7.7594e-02  1.0178e+00  5.7534e-02  1.4314e-02  1.2886e-02  0:07:50 1984
    17  6.0449e-02  1.0565e-02  7.9531e-02  1.1431e+00  6.0666e-02  1.3840e-02  1.2437e-02  0:12:52 1983
    18  6.2883e-02  1.1568e-02  8.0804e-02  1.2566e+00  6.3118e-02  1.3418e-02  1.2035e-02  0:10:17 1982
    19  6.4590e-02  1.2923e-02  8.1435e-02  1.3438e+00  6.4844e-02  1.3047e-02  1.1743e-02  0:08:14 1981
    20  6.5234e-02  1.4055e-02  8.1018e-02  1.4094e+00  6.5493e-02  1.2736e-02  1.1508e-02  0:13:11 1980
    21  6.4267e-02  1.5138e-02  7.9610e-02  1.4362e+00  6.4515e-02  1.2471e-02  1.1226e-02  0:10:32 1979
    22  6.0806e-02  1.6297e-02  7.7873e-02  1.4351e+00  6.1019e-02  1.2256e-02  1.1061e-02  0:08:26 1978

  iter  continuity  x-velocity  y-velocity  z-velocity      energy           k       omega     time/iter
    23  5.5521e-02  1.7015e-02  7.5866e-02  1.4070e+00  5.5684e-02  1.2080e-02  1.0797e-02  0:13:20 1977
    24  4.9280e-02  1.7111e-02  7.3827e-02  1.3571e+00  4.9390e-02  1.1959e-02  1.0639e-02  0:10:39 1976
    25  4.2805e-02  1.6785e-02  7.1923e-02  1.2875e+00  4.2868e-02  1.1852e-02  1.0358e-02  0:08:31 1975
    26  3.6928e-02  1.6054e-02  6.9971e-02  1.2201e+00  3.6958e-02  1.1749e-02  1.0102e-02  0:13:24 1974
    27  3.2410e-02  1.4800e-02  6.7989e-02  1.1594e+00  3.2425e-02  1.1659e-02  9.9324e-03  0:10:43 1973
    28  2.9679e-02  1.3217e-02  6.6372e-02  1.1026e+00  2.9695e-02  1.1607e-02  9.7377e-03  0:15:08 1972
    29  2.8487e-02  1.1549e-02  6.4988e-02  1.0482e+00  2.8516e-02  1.1540e-02  9.4617e-03  0:12:06 1971
    30  2.7987e-02  9.8237e-03  6.3689e-02  9.9724e-01  2.8028e-02  1.1497e-02  9.2019e-03  0:09:41 1970
    31  2.8121e-02  8.4264e-03  6.2512e-02  9.5105e-01  2.8171e-02  1.1433e-02  9.0063e-03  0:07:44 1969
    32  2.8548e-02  7.4440e-03  6.1421e-02  9.0790e-01  2.8605e-02  1.1345e-02  8.7773e-03  0:12:45 1968
    33  2.9118e-02  6.6906e-03  6.0328e-02  8.6991e-01  2.9178e-02  1.1281e-02  8.5483e-03  0:10:12 1967

  iter  continuity  x-velocity  y-velocity  z-velocity      energy           k       omega     time/iter
    34  2.9624e-02  6.0350e-03  5.9213e-02  8.3890e-01  2.9683e-02  1.1229e-02  8.3812e-03  0:08:09 1966
    35  2.9892e-02  5.5102e-03  5.8087e-02  8.0424e-01  2.9947e-02  1.1185e-02  8.2153e-03  0:13:04 1965
    36  2.9987e-02  5.0578e-03  5.6886e-02  7.6738e-01  3.0035e-02  1.1145e-02  8.0418e-03  0:10:27 1964
    37  2.9889e-02  4.6717e-03  5.5610e-02  7.2679e-01  2.9926e-02  1.1144e-02  7.9171e-03  0:08:21 1963
    38  2.9657e-02  4.3970e-03  5.4264e-02  6.8623e-01  2.9680e-02  1.1156e-02  7.8175e-03  0:13:13 1962
    39  2.9352e-02  4.2191e-03  5.2835e-02  6.4568e-01  2.9361e-02  1.1165e-02  7.7055e-03  0:10:34 1961
    40  2.8842e-02  4.1138e-03  5.1273e-02  6.0595e-01  2.8835e-02  1.1198e-02  7.6116e-03  0:08:27 1960
    41  2.8354e-02  4.0875e-03  4.9618e-02  5.6782e-01  2.8333e-02  1.1223e-02  7.5548e-03  0:06:45 1959
    42  2.7967e-02  4.1362e-03  4.7886e-02  5.3148e-01  2.7932e-02  1.1235e-02  7.5040e-03  0:11:56 1958
    43  2.7672e-02  4.2264e-03  4.6143e-02  4.9795e-01  2.7626e-02  1.1265e-02  7.4762e-03  0:09:32 1957
    44  2.7283e-02  4.3189e-03  4.4418e-02  4.6901e-01  2.7228e-02  1.1295e-02  7.4686e-03  0:07:38 1956

  iter  continuity  x-velocity  y-velocity  z-velocity      energy           k       omega     time/iter
    45  2.7002e-02  4.4275e-03  4.2766e-02  4.4537e-01  2.6941e-02  1.1316e-02  7.4798e-03  0:12:37 1955
    46  2.6881e-02  4.5289e-03  4.1201e-02  4.3225e-01  2.6820e-02  1.1333e-02  7.4865e-03  0:10:05 1954
    47  2.6997e-02  4.6376e-03  3.9813e-02  4.2742e-01  2.6942e-02  1.1361e-02  7.4801e-03  0:08:04 1953
    48  2.7492e-02  4.7980e-03  3.8724e-02  4.3158e-01  2.7446e-02  1.1385e-02  7.4894e-03  0:06:27 1952
    49  2.8403e-02  5.0235e-03  3.7943e-02  4.4185e-01  2.8372e-02  1.1398e-02  7.5194e-03  0:11:40 1951
    50  2.9692e-02  5.3044e-03  3.7471e-02  4.5618e-01  2.9679e-02  1.1439e-02  7.5503e-03  0:09:19 1950
    51  3.1354e-02  5.6001e-03  3.7449e-02  4.7220e-01  3.1361e-02  1.1477e-02  7.5921e-03  0:07:27 1949
    52  3.3398e-02  5.8874e-03  3.7864e-02  4.9047e-01  3.3427e-02  1.1552e-02  7.6349e-03  0:12:27 1948
    53  3.5487e-02  6.1265e-03  3.8706e-02  5.0324e-01  3.5540e-02  1.1654e-02  7.6740e-03  0:09:57 1947
    54  3.7849e-02  6.3715e-03  3.9696e-02  5.1716e-01  3.7925e-02  1.1780e-02  7.7405e-03  0:07:58 1946
    55  4.0218e-02  6.5787e-03  4.0961e-02  5.3021e-01  4.0315e-02  1.1985e-02  7.7995e-03  0:12:51 1945

  iter  continuity  x-velocity  y-velocity  z-velocity      energy           k       omega     time/iter
    56  4.2369e-02  6.7324e-03  4.2249e-02  5.3905e-01  4.2482e-02  1.2098e-02  7.8185e-03  0:10:16 1944
    57  4.4301e-02  6.7702e-03  4.3429e-02  5.4262e-01  4.4426e-02  1.2342e-02  7.9113e-03  0:08:13 1943
    58  4.5843e-02  6.7505e-03  4.4434e-02  5.4845e-01  4.5977e-02  1.2454e-02  7.9837e-03  0:13:03 1942
    59  4.6282e-02  6.5046e-03  4.4966e-02  5.5439e-01  4.6413e-02  1.2695e-02  8.0363e-03  0:10:26 1941
    60  4.5478e-02  6.1522e-03  4.4778e-02  5.5736e-01  4.5594e-02  1.2755e-02  8.0242e-03  0:08:20 1940
    61  4.4177e-02  5.7604e-03  4.4044e-02  5.5403e-01  4.4275e-02  1.3036e-02  8.0672e-03  0:13:08 1939
    62  4.2491e-02  5.3586e-03  4.3221e-02  5.5169e-01  4.2568e-02  1.3303e-02  8.0745e-03  0:10:30 1938
    63  4.0500e-02  5.0092e-03  4.2171e-02  5.4511e-01  4.0560e-02  1.3535e-02  8.1368e-03  0:08:24 1937
    64  3.8323e-02  4.7790e-03  4.1408e-02  5.3503e-01  3.8369e-02  1.3841e-02  8.1796e-03  0:13:10 1936
    65  3.6521e-02  4.5872e-03  4.0282e-02  5.3066e-01  3.6553e-02  1.3908e-02  8.1971e-03  0:10:32 1935
    66  3.5418e-02  4.3778e-03  3.8861e-02  5.4555e-01  3.5437e-02  1.4154e-02  8.2838e-03  0:08:25 1934

  iter  continuity  x-velocity  y-velocity  z-velocity      energy           k       omega     time/iter
    67  3.4476e-02  4.2136e-03  3.7668e-02  5.7355e-01  3.4486e-02  1.4528e-02  8.2991e-03  0:13:10 1933
    68  3.3577e-02  4.1211e-03  3.6671e-02  6.3069e-01  3.3582e-02  1.4714e-02  8.3512e-03  0:10:32 1932
    69  3.2873e-02  4.0892e-03  3.5731e-02  6.6738e-01  3.2876e-02  1.4997e-02  8.4152e-03  0:08:25 1931
    70  3.2147e-02  4.0626e-03  3.4601e-02  7.3477e-01  3.2150e-02  1.5441e-02  8.4608e-03  0:13:10 1930
    71  3.1281e-02  4.0237e-03  3.3265e-02  8.7716e-01  3.1283e-02  1.5778e-02  8.4343e-03  0:10:32 1929
    72  3.0227e-02  3.9846e-03  3.1826e-02  1.0337e+00  3.0226e-02  1.6013e-02  8.4261e-03  0:08:25 1928
    73  2.8948e-02  3.9860e-03  3.0250e-02  1.0078e+00  2.8944e-02  1.6451e-02  8.4133e-03  0:13:09 1927
    74  2.7475e-02  4.0405e-03  2.8535e-02  1.0347e+00  2.7465e-02  1.6932e-02  8.3829e-03  0:10:31 1926
    75  2.5850e-02  4.1566e-03  2.6847e-02  1.0100e+00  2.5832e-02  1.7406e-02  8.3409e-03  0:08:25 1925
    76  2.4152e-02  4.2602e-03  2.5176e-02  1.1529e+00  2.4126e-02  1.7778e-02  8.2916e-03  0:06:43 1924
    77  2.2535e-02  4.3075e-03  2.3526e-02  1.3116e+00  2.2501e-02  1.8206e-02  8.2334e-03  0:11:47 1923

  iter  continuity  x-velocity  y-velocity  z-velocity      energy           k       omega     time/iter
    78  2.1058e-02  4.2391e-03  2.2035e-02  1.7299e+00  2.1019e-02  1.8744e-02  8.1930e-03  0:09:25 1922
    79  1.9848e-02  4.1744e-03  2.0537e-02  2.1574e+00  1.9806e-02  1.9363e-02  8.1975e-03  0:07:32 1921
    80  1.9023e-02  4.1103e-03  1.9247e-02  2.5532e+00  1.8983e-02  1.9957e-02  8.1782e-03  0:12:26 1920
    81  1.8570e-02  4.0753e-03  1.8462e-02  3.0365e+00  1.8533e-02  2.0701e-02  8.1370e-03  0:09:56 1919
    82  1.8401e-02  4.0625e-03  1.8112e-02  4.1005e+00  1.8372e-02  2.1456e-02  8.1017e-03  0:07:57 1918
    83  1.8477e-02  4.0539e-03  1.8137e-02  6.1215e+00  1.8456e-02  2.2105e-02  8.0916e-03  0:12:45 1917
    84  1.8786e-02  4.0814e-03  1.8446e-02  7.0611e+00  1.8775e-02  2.2938e-02  8.0724e-03  0:10:11 1916
    85  1.9219e-02  4.1245e-03  1.8980e-02  6.6079e+00  1.9217e-02  2.4031e-02  8.0937e-03  0:08:09 1915
    86  1.9518e-02  4.1788e-03  1.9639e-02  5.3825e+00  1.9523e-02  2.5056e-02  8.1067e-03  0:12:54 1914
    87  1.9514e-02  4.2627e-03  2.0357e-02  4.9495e+00  1.9524e-02  2.5738e-02  8.1159e-03  0:10:19 1913
    88  1.9422e-02  4.3863e-03  2.1052e-02  5.0970e+00  1.9436e-02  2.6442e-02  8.1906e-03  0:08:15 1912

  iter  continuity  x-velocity  y-velocity  z-velocity      energy           k       omega     time/iter
    89  1.9233e-02  4.5205e-03  2.1673e-02  5.5764e+00  1.9249e-02  2.7733e-02  8.2659e-03  0:12:58 1911
    90  1.8905e-02  4.6723e-03  2.2197e-02  5.9031e+00  1.8921e-02  2.8624e-02  8.3435e-03  0:10:22 1910
    91  1.8526e-02  4.7969e-03  2.2625e-02  5.8210e+00  1.8540e-02  2.9323e-02  8.3329e-03  0:08:17 1909
    92  1.8210e-02  4.8869e-03  2.2963e-02  5.7981e+00  1.8223e-02  2.9531e-02  8.3698e-03  0:12:59 1908
    93  1.8023e-02  4.9544e-03  2.3237e-02  5.7200e+00  1.8035e-02  3.0321e-02  8.3998e-03  0:10:23 1907
    94  1.8002e-02  4.9814e-03  2.3438e-02  5.5057e+00  1.8012e-02  3.1481e-02  8.4028e-03  0:08:18 1906
    95  1.8206e-02  4.9907e-03  2.3595e-02  5.2653e+00  1.8217e-02  3.2059e-02  8.3828e-03  0:06:38 1905
    96  1.8630e-02  4.9784e-03  2.3699e-02  5.0978e+00  1.8642e-02  3.2683e-02  8.3779e-03  0:11:39 1904
    97  1.9272e-02  4.9353e-03  2.3739e-02  5.0587e+00  1.9286e-02  3.2556e-02  8.3461e-03  0:09:19 1903
    98  2.0152e-02  4.8883e-03  2.3727e-02  5.0835e+00  2.0169e-02  3.2210e-02  8.3529e-03  0:07:27 1902
    99  2.1210e-02  4.8144e-03  2.3727e-02  5.0041e+00  2.1231e-02  3.2865e-02  8.3367e-03  0:12:18 1901

  iter  continuity  x-velocity  y-velocity  z-velocity      energy           k       omega     time/iter
   100  2.2406e-02  4.7226e-03  2.3710e-02  4.9502e+00  2.2430e-02  3.3414e-02  8.2486e-03  0:09:50 1900
   101  2.3700e-02  4.6122e-03  2.3608e-02  4.9016e+00  2.3727e-02  3.3393e-02  8.1620e-03  0:07:52 1899
   102  2.5045e-02  4.4991e-03  2.3444e-02  4.8219e+00  2.5075e-02  3.3234e-02  8.0361e-03  0:12:37 1898
   103  2.6400e-02  4.4125e-03  2.3220e-02  4.7628e+00  2.6432e-02  3.2590e-02  7.9146e-03  0:10:05 1897
   104  2.7631e-02  4.3614e-03  2.3003e-02  4.5856e+00  2.7665e-02  3.1665e-02  7.8195e-03  0:08:04 1896
   105  2.8644e-02  4.3600e-03  2.2773e-02  4.3611e+00  2.8679e-02  3.1262e-02  7.7423e-03  0:12:46 1895
   106  2.9439e-02  4.4078e-03  2.2532e-02  4.1559e+00  2.9475e-02  3.1073e-02  7.6451e-03  0:10:12 1894
   107  2.9877e-02  4.5038e-03  2.2305e-02  3.9416e+00  2.9913e-02  3.0781e-02  7.5463e-03  0:08:10 1893
   108  2.9996e-02  4.6511e-03  2.2080e-02  3.7326e+00  3.0031e-02  3.0223e-02  7.4254e-03  0:12:50 1892
   109  2.9783e-02  4.8407e-03  2.1858e-02  3.5611e+00  2.9816e-02  2.9636e-02  7.2794e-03  0:10:16 1891
   110  2.9198e-02  5.0664e-03  2.1621e-02  3.4451e+00  2.9228e-02  2.8708e-02  7.1319e-03  0:08:12 1890

  iter  continuity  x-velocity  y-velocity  z-velocity      energy           k       omega     time/iter
   111  2.8195e-02  5.3039e-03  2.1342e-02  3.3492e+00  2.8221e-02  2.7464e-02  6.9883e-03  0:12:51 1889
   112  2.6826e-02  5.5603e-03  2.0990e-02  3.2729e+00  2.6846e-02  2.6305e-02  6.8873e-03  0:10:17 1888
   113  2.5184e-02  5.8247e-03  2.0525e-02  3.2327e+00  2.5196e-02  2.5440e-02  6.7633e-03  0:08:13 1887
   114  2.3380e-02  6.0487e-03  1.9971e-02  3.2070e+00  2.3383e-02  2.4785e-02  6.6410e-03  0:12:52 1886
   115  2.1529e-02  6.2319e-03  1.9377e-02  3.1824e+00  2.1523e-02  2.4195e-02  6.4840e-03  0:10:17 1885
   116  1.9808e-02  6.3513e-03  1.8760e-02  3.1527e+00  1.9792e-02  2.3721e-02  6.3417e-03  0:08:13 1884
   117  1.8405e-02  6.3831e-03  1.8174e-02  3.1241e+00  1.8379e-02  2.3290e-02  6.2192e-03  0:12:51 1883
   118  1.7385e-02  6.3413e-03  1.7661e-02  3.0677e+00  1.7352e-02  2.2907e-02  6.0789e-03  0:10:16 1882
   119  1.6726e-02  6.2476e-03  1.7260e-02  2.9896e+00  1.6688e-02  2.2501e-02  5.9599e-03  0:08:13 1881
   120  1.6354e-02  6.1303e-03  1.6989e-02  2.8951e+00  1.6312e-02  2.2127e-02  5.8870e-03  0:12:50 1880
   121  1.6223e-02  5.9817e-03  1.6872e-02  2.8086e+00  1.6180e-02  2.1896e-02  5.8152e-03  0:10:16 1879

  iter  continuity  x-velocity  y-velocity  z-velocity      energy           k       omega     time/iter
   122  1.6308e-02  5.8020e-03  1.6891e-02  2.7328e+00  1.6265e-02  2.1864e-02  5.7464e-03  0:08:12 1878
   123  1.6525e-02  5.6005e-03  1.7030e-02  2.6667e+00  1.6483e-02  2.1836e-02  5.6906e-03  0:12:49 1877
   124  1.6777e-02  5.4021e-03  1.7238e-02  2.6165e+00  1.6736e-02  2.1857e-02  5.6330e-03  0:10:15 1876
   125  1.6985e-02  5.2152e-03  1.7476e-02  2.5873e+00  1.6945e-02  2.1965e-02  5.5801e-03  0:08:12 1875
   126  1.7085e-02  5.0548e-03  1.7713e-02  2.5899e+00  1.7046e-02  2.2000e-02  5.5385e-03  0:06:33 1874
   127  1.7015e-02  4.9173e-03  1.7924e-02  2.6141e+00  1.6976e-02  2.1889e-02  5.5264e-03  0:11:29 1873
   128  1.6765e-02  4.8218e-03  1.8128e-02  2.6615e+00  1.6727e-02  2.1727e-02  5.5220e-03  0:09:11 1872
   129  1.6436e-02  4.7683e-03  1.8318e-02  2.7271e+00  1.6398e-02  2.1688e-02  5.5266e-03  0:07:20 1871
   130  1.6056e-02  4.7432e-03  1.8470e-02  2.8036e+00  1.6018e-02  2.1763e-02  5.5543e-03  0:12:06 1870
   131  1.5602e-02  4.7403e-03  1.8584e-02  2.9002e+00  1.5564e-02  2.1891e-02  5.5710e-03  0:09:41 1869
   132  1.5092e-02  4.7556e-03  1.8673e-02  3.0110e+00  1.5055e-02  2.1478e-02  5.5772e-03  0:07:44 1868

  iter  continuity  x-velocity  y-velocity  z-velocity      energy           k       omega     time/iter
   133  1.4606e-02  4.7799e-03  1.8741e-02  3.1195e+00  1.4570e-02  2.0947e-02  5.5823e-03  0:12:25 1867
   134  1.4149e-02  4.8150e-03  1.8800e-02  3.2212e+00  1.4115e-02  2.0791e-02  5.6089e-03  0:09:55 1866
   135  1.3619e-02  4.8573e-03  1.8855e-02  3.3227e+00  1.3586e-02  2.0653e-02  5.6276e-03  0:07:56 1865
   136  1.3184e-02  4.9075e-03  1.8876e-02  3.4115e+00  1.3153e-02  2.0478e-02  5.6564e-03  0:12:33 1864
   137  1.2840e-02  4.9569e-03  1.8846e-02  3.5054e+00  1.2811e-02  2.0393e-02  5.6927e-03  0:10:02 1863
   138  1.2614e-02  5.0050e-03  1.8779e-02  3.6187e+00  1.2589e-02  2.0335e-02  5.6959e-03  0:08:02 1862
   139  1.2538e-02  5.0632e-03  1.8694e-02  3.7442e+00  1.2515e-02  2.0316e-02  5.7108e-03  0:12:37 1861
   140  1.2560e-02  5.1263e-03  1.8574e-02  3.8935e+00  1.2540e-02  2.0328e-02  5.7044e-03  0:10:06 1860
   141  1.2717e-02  5.1929e-03  1.8441e-02  4.0733e+00  1.2700e-02  2.0244e-02  5.6926e-03  0:08:04 1859
   142  1.2971e-02  5.2393e-03  1.8302e-02  4.2912e+00  1.2958e-02  1.9831e-02  5.6556e-03  0:12:39 1858
   143  1.3354e-02  5.2688e-03  1.8177e-02  4.5398e+00  1.3343e-02  1.9310e-02  5.6385e-03  0:10:07 1857

  iter  continuity  x-velocity  y-velocity  z-velocity      energy           k       omega     time/iter
   144  1.3874e-02  5.2831e-03  1.8065e-02  4.8171e+00  1.3867e-02  1.8857e-02  5.5903e-03  0:08:05 1856
   145  1.4464e-02  5.2901e-03  1.7989e-02  5.1268e+00  1.4459e-02  1.8541e-02  5.5590e-03  0:06:28 1855
   146  1.5086e-02  5.2788e-03  1.7962e-02  5.3911e+00  1.5084e-02  1.8156e-02  5.5390e-03  0:11:21 1854
   147  1.5680e-02  5.2586e-03  1.7976e-02  5.6550e+00  1.5681e-02  1.7722e-02  5.5066e-03  0:09:04 1853
   148  1.6255e-02  5.2190e-03  1.8037e-02  5.9268e+00  1.6258e-02  1.7261e-02  5.4645e-03  0:07:15 1852
   149  1.6961e-02  5.1718e-03  1.8140e-02  6.1732e+00  1.6966e-02  1.6813e-02  5.4222e-03  0:11:58 1851
   150  1.7683e-02  5.1061e-03  1.8270e-02  6.3765e+00  1.7690e-02  1.6415e-02  5.3652e-03  0:09:34 1850
   151  1.8491e-02  5.0142e-03  1.8422e-02  6.5657e+00  1.8500e-02  1.6120e-02  5.3440e-03  0:07:39 1849
   152  1.9321e-02  4.9050e-03  1.8590e-02  6.7539e+00  1.9331e-02  1.5921e-02  5.3354e-03  0:12:17 1848
   153  2.0233e-02  4.7756e-03  1.8751e-02  6.9216e+00  2.0244e-02  1.5689e-02  5.3101e-03  0:09:49 1847
   154  2.1170e-02  4.6447e-03  1.8910e-02  7.0964e+00  2.1184e-02  1.5436e-02  5.2840e-03  0:07:51 1846

  iter  continuity  x-velocity  y-velocity  z-velocity      energy           k       omega     time/iter
   155  2.2029e-02  4.5149e-03  1.9048e-02  7.2640e+00  2.2044e-02  1.5153e-02  5.2685e-03  0:12:26 1845
   156  2.2723e-02  4.3806e-03  1.9138e-02  7.4263e+00  2.2739e-02  1.4888e-02  5.2389e-03  0:09:56 1844
   157  2.3218e-02  4.2504e-03  1.9150e-02  7.6373e+00  2.3235e-02  1.4595e-02  5.1707e-03  0:07:57 1843
   158  2.3461e-02  4.1262e-03  1.9061e-02  7.9716e+00  2.3477e-02  1.4207e-02  5.0964e-03  0:06:21 1842
   159  2.3391e-02  4.0216e-03  1.8832e-02  8.4191e+00  2.3406e-02  1.3769e-02  5.0091e-03  0:11:13 1841
   160  2.2991e-02  3.9278e-03  1.8467e-02  8.9930e+00  2.3003e-02  1.3431e-02  4.9305e-03  0:08:58 1840
   161  2.2293e-02  3.8397e-03  1.8024e-02  9.6423e+00  2.2301e-02  1.3158e-02  4.8425e-03  0:13:18 1839
   162  2.1387e-02  3.7606e-03  1.7535e-02  1.0316e+01  2.1391e-02  1.2975e-02  4.7536e-03  0:10:38 1838
   163  2.0366e-02  3.6881e-03  1.7043e-02  1.0966e+01  2.0366e-02  1.2813e-02  4.6692e-03  0:08:30 1837
   164  1.9308e-02  3.5800e-03  1.6292e-02  1.1459e+01  1.9303e-02  1.2623e-02  4.5874e-03  0:12:55 1836
   165  1.8244e-02  3.5040e-03  1.5753e-02  1.1914e+01  1.8234e-02  1.2361e-02  4.5093e-03  0:10:20 1835

  iter  continuity  x-velocity  y-velocity  z-velocity      energy           k       omega     time/iter
   166  1.7229e-02  3.4481e-03  1.5245e-02  1.2192e+01  1.7213e-02  1.2080e-02  4.4355e-03  0:08:16 1834
   167  1.6298e-02  3.4078e-03  1.4786e-02  1.2427e+01  1.6278e-02  1.1830e-02  4.3841e-03  0:12:43 1833
   168  1.5486e-02  3.3661e-03  1.4383e-02  1.3132e+01  1.5463e-02  1.1585e-02  4.3191e-03  0:10:10 1832
   169  1.4816e-02  3.3151e-03  1.4057e-02  1.4330e+01  1.4790e-02  1.1305e-02  4.2715e-03  0:08:08 1831
   170  1.4281e-02  3.2654e-03  1.3799e-02  1.5976e+01  1.4254e-02  1.1005e-02  4.2174e-03  0:12:36 1830
   171  1.3891e-02  3.2341e-03  1.3620e-02  1.7843e+01  1.3864e-02  1.0738e-02  4.2060e-03  0:10:04 1829
   172  1.3583e-02  3.2209e-03  1.3511e-02  1.9879e+01  1.3557e-02  1.0467e-02  4.1915e-03  0:08:03 1828
   173  1.3380e-02  3.1985e-03  1.3474e-02  2.2195e+01  1.3356e-02  1.0235e-02  4.1858e-03  0:12:32 1827
   174  1.3272e-02  3.1670e-03  1.3488e-02  2.3920e+01  1.3249e-02  1.0025e-02  4.1892e-03  0:10:01 1826
   175  1.3080e-02  3.1545e-03  1.3579e-02  2.5504e+01  1.3059e-02  9.8630e-03  4.2199e-03  0:08:01 1825
   176  1.2980e-02  3.1578e-03  1.3728e-02  2.7368e+01  1.2961e-02  9.7431e-03  4.2507e-03  0:12:29 1824

  iter  continuity  x-velocity  y-velocity  z-velocity      energy           k       omega     time/iter
   177  1.2789e-02  3.1721e-03  1.3928e-02  2.8777e+01  1.2771e-02  9.7162e-03  4.2764e-03  0:09:59 1823
   178  1.2478e-02  3.1912e-03  1.4165e-02  2.9699e+01  1.2461e-02  9.7028e-03  4.3094e-03  0:07:59 1822
   179  1.2154e-02  3.2128e-03  1.4425e-02  2.9532e+01  1.2137e-02  9.6859e-03  4.3480e-03  0:06:23 1821
   180  1.1895e-02  3.2355e-03  1.4701e-02  2.7172e+01  1.1880e-02  9.7167e-03  4.3796e-03  0:11:10 1820
   181  1.1771e-02  3.2558e-03  1.4982e-02  2.3705e+01  1.1759e-02  9.7968e-03  4.4249e-03  0:08:56 1819
   182  1.1872e-02  3.2918e-03  1.5252e-02  2.0266e+01  1.1864e-02  9.8854e-03  4.4910e-03  0:13:12 1818
   183  1.2315e-02  3.3302e-03  1.5526e-02  1.7080e+01  1.2313e-02  9.9834e-03  4.5368e-03  0:10:33 1817
   184  1.3182e-02  3.3545e-03  1.5784e-02  1.4701e+01  1.3187e-02  1.0130e-02  4.5836e-03  0:08:26 1816
   185  1.4585e-02  3.3712e-03  1.6019e-02  1.3359e+01  1.4598e-02  1.0237e-02  4.6332e-03  0:06:45 1815
   186  1.6394e-02  3.3825e-03  1.6228e-02  1.2553e+01  1.6415e-02  1.0301e-02  4.6811e-03  0:11:27 1814
   187  1.8955e-02  3.3932e-03  1.6404e-02  1.2072e+01  1.8983e-02  1.0381e-02  4.7412e-03  0:09:09 1813

  iter  continuity  x-velocity  y-velocity  z-velocity      energy           k       omega     time/iter
   188  2.1237e-02  3.3885e-03  1.6539e-02  1.3131e+01  2.1271e-02  1.0445e-02  4.7933e-03  0:07:19 1812
   189  2.2428e-02  3.3802e-03  1.6628e-02  1.4018e+01  2.2464e-02  1.0553e-02  4.8541e-03  0:11:53 1811
   190  2.3845e-02  3.3616e-03  1.6675e-02  1.4868e+01  2.3883e-02  1.0639e-02  4.9176e-03  0:09:30 1810
   191  2.5382e-02  3.3382e-03  1.6672e-02  1.5548e+01  2.5423e-02  1.0659e-02  4.9839e-03  0:07:36 1809
   192  2.6655e-02  3.3168e-03  1.6608e-02  1.5544e+01  2.6697e-02  1.0678e-02  5.0454e-03  0:12:06 1808
   193  2.7598e-02  3.3118e-03  1.6497e-02  1.4999e+01  2.7640e-02  1.0671e-02  5.0983e-03  0:09:41 1807
   194  2.8464e-02  3.3139e-03  1.6350e-02  1.4051e+01  2.8506e-02  1.0666e-02  5.1515e-03  0:07:44 1806
   195  2.9076e-02  3.3317e-03  1.6187e-02  1.2766e+01  2.9116e-02  1.0711e-02  5.1887e-03  0:06:11 1805
   196  2.9548e-02  3.3641e-03  1.6013e-02  1.1181e+01  2.9586e-02  1.0777e-02  5.2087e-03  0:10:58 1804
   197  2.9713e-02  3.4159e-03  1.5816e-02  9.8337e+00  2.9750e-02  1.0803e-02  5.2243e-03  0:08:46 1803
   198  2.9369e-02  3.4849e-03  1.5614e-02  8.9022e+00  2.9403e-02  1.0826e-02  5.2325e-03  0:07:00 1802

  iter  continuity  x-velocity  y-velocity  z-velocity      energy           k       omega     time/iter
   199  2.8715e-02  3.5710e-03  1.5413e-02  8.3134e+00  2.8746e-02  1.0834e-02  5.2206e-03  0:11:36 1801
   200  2.7815e-02  3.6622e-03  1.5180e-02  7.9341e+00  2.7842e-02  1.0800e-02  5.2663e-03  0:09:17 1800
   201  2.6346e-02  3.7884e-03  1.4870e-02  7.7746e+00  2.6367e-02  1.0786e-02  5.3001e-03  0:07:25 1799
   202  2.4185e-02  3.9278e-03  1.4450e-02  7.7913e+00  2.4201e-02  1.0758e-02  5.3340e-03  0:11:56 1798
   203  2.1571e-02  4.0873e-03  1.3888e-02  8.0404e+00  2.1580e-02  1.0726e-02  5.3427e-03  0:09:32 1797
   204  1.8807e-02  4.2410e-03  1.3166e-02  8.6305e+00  1.8810e-02  1.0701e-02  5.3034e-03  0:07:37 1796
   205  1.6245e-02  4.3536e-03  1.2311e-02  9.5299e+00  1.6242e-02  1.0683e-02  5.2775e-03  0:12:05 1795
   206  1.3985e-02  4.4145e-03  1.1367e-02  1.0706e+01  1.3975e-02  1.0699e-02  5.2739e-03  0:09:39 1794
   207  1.2116e-02  4.4410e-03  1.0447e-02  1.2054e+01  1.2102e-02  1.0729e-02  5.2392e-03  0:07:43 1793
   208  1.0728e-02  4.4258e-03  9.6466e-03  1.3926e+01  1.0710e-02  1.0756e-02  5.1987e-03  0:12:09 1792
   209  9.8154e-03  4.3803e-03  9.0517e-03  1.5592e+01  9.7949e-03  1.0797e-02  5.1524e-03  0:09:43 1791

  iter  continuity  x-velocity  y-velocity  z-velocity      energy           k       omega     time/iter
   210  9.3134e-03  4.3207e-03  8.7076e-03  1.7422e+01  9.2921e-03  1.0817e-02  5.1062e-03  0:07:46 1790
   211  9.2151e-03  4.2701e-03  8.6125e-03  1.9229e+01  9.1943e-03  1.0864e-02  5.0525e-03  0:12:10 1789
   212  9.4252e-03  4.2298e-03  8.7263e-03  2.0868e+01  9.4059e-03  1.0900e-02  5.0219e-03  0:09:44 1788
   213  9.7685e-03  4.2221e-03  8.9746e-03  2.2309e+01  9.7507e-03  1.0947e-02  4.9835e-03  0:07:47 1787
   214  1.0108e-02  4.2576e-03  9.2786e-03  2.3694e+01  1.0092e-02  1.0991e-02  4.9733e-03  0:06:13 1786
   215  1.0373e-02  4.3367e-03  9.5639e-03  2.4911e+01  1.0357e-02  1.1010e-02  4.9338e-03  0:10:55 1785
   216  1.0504e-02  4.4536e-03  9.7820e-03  2.5313e+01  1.0487e-02  1.1033e-02  4.8791e-03  0:08:44 1784
   217  1.0480e-02  4.5945e-03  9.9080e-03  2.5082e+01  1.0462e-02  1.1034e-02  4.8203e-03  0:12:56 1783
   218  1.0356e-02  4.7391e-03  9.9540e-03  2.4776e+01  1.0336e-02  1.1048e-02  4.7834e-03  0:10:20 1782
   219  1.0206e-02  4.8743e-03  9.9271e-03  2.4288e+01  1.0184e-02  1.1030e-02  4.7418e-03  0:08:16 1781
   220  9.9357e-03  4.9702e-03  9.8398e-03  2.3930e+01  9.9093e-03  1.0989e-02  4.6714e-03  0:12:32 1780

  iter  continuity  x-velocity  y-velocity  z-velocity      energy           k       omega     time/iter
   221  9.7307e-03  5.0401e-03  9.7518e-03  2.3868e+01  9.7005e-03  1.0957e-02  4.6216e-03  0:10:02 1779
   222  9.6204e-03  5.0763e-03  9.6857e-03  2.3823e+01  9.5866e-03  1.0945e-02  4.5773e-03  0:08:01 1778
   223  9.5987e-03  5.0889e-03  9.6684e-03  2.4081e+01  9.5617e-03  1.0960e-02  4.5348e-03  0:12:20 1777
   224  9.6828e-03  5.0688e-03  9.6781e-03  2.4491e+01  9.6430e-03  1.0933e-02  4.4828e-03  0:09:52 1776
   225  9.8781e-03  5.0291e-03  9.7265e-03  2.4962e+01  9.8361e-03  1.0908e-02  4.4294e-03  0:07:53 1775
   226  1.0175e-02  4.9694e-03  9.7938e-03  2.5238e+01  1.0131e-02  1.0891e-02  4.3851e-03  0:12:13 1774
   227  1.0547e-02  4.8888e-03  9.8780e-03  2.5407e+01  1.0502e-02  1.0853e-02  4.3496e-03  0:09:46 1773
   228  1.0948e-02  4.7653e-03  9.9720e-03  2.5471e+01  1.0902e-02  1.0810e-02  4.3061e-03  0:07:49 1772
   229  1.1364e-02  4.6205e-03  1.0078e-02  2.5505e+01  1.1318e-02  1.0732e-02  4.2936e-03  0:12:09 1771
   230  1.1684e-02  4.4663e-03  1.0174e-02  2.5395e+01  1.1637e-02  1.0663e-02  4.2704e-03  0:09:43 1770
   231  1.1921e-02  4.2939e-03  1.0281e-02  2.5179e+01  1.1874e-02  1.0623e-02  4.2558e-03  0:07:46 1769

  iter  continuity  x-velocity  y-velocity  z-velocity      energy           k       omega     time/iter
   232  1.2048e-02  4.1025e-03  1.0390e-02  2.4819e+01  1.2001e-02  1.0642e-02  4.2462e-03  0:12:06 1768
   233  1.2093e-02  3.9075e-03  1.0514e-02  2.4213e+01  1.2047e-02  1.0679e-02  4.2408e-03  0:09:41 1767
   234  1.2114e-02  3.7420e-03  1.0637e-02  2.3460e+01  1.2068e-02  1.0702e-02  4.2372e-03  0:13:37 1766
   235  1.2226e-02  3.5921e-03  1.0734e-02  2.2560e+01  1.2180e-02  1.0739e-02  4.2385e-03  0:10:54 1765
   236  1.2278e-02  3.4052e-03  1.0828e-02  2.1385e+01  1.2234e-02  1.0787e-02  4.2506e-03  0:08:43 1764
   237  1.2314e-02  3.2621e-03  1.0909e-02  1.9998e+01  1.2271e-02  1.0846e-02  4.2600e-03  0:12:50 1763
   238  1.2358e-02  3.1593e-03  1.0958e-02  1.8431e+01  1.2315e-02  1.0904e-02  4.2640e-03  0:10:16 1762
   239  1.2380e-02  3.0708e-03  1.0962e-02  1.6845e+01  1.2338e-02  1.0977e-02  4.2716e-03  0:08:13 1761
   240  1.2379e-02  2.9845e-03  1.0907e-02  1.5174e+01  1.2337e-02  1.1080e-02  4.2756e-03  0:06:34 1760
   241  1.2379e-02  2.9015e-03  1.0811e-02  1.3586e+01  1.2337e-02  1.1189e-02  4.2913e-03  0:11:07 1759
   242  1.2375e-02  2.8220e-03  1.0679e-02  1.2252e+01  1.2333e-02  1.1309e-02  4.3023e-03  0:08:53 1758

  iter  continuity  x-velocity  y-velocity  z-velocity      energy           k       omega     time/iter
   243  1.2362e-02  2.7449e-03  1.0518e-02  1.1237e+01  1.2319e-02  1.1394e-02  4.3086e-03  0:07:06 1757
   244  1.2337e-02  2.6676e-03  1.0358e-02  1.0460e+01  1.2295e-02  1.1452e-02  4.3117e-03  0:11:32 1756
   245  1.2292e-02  2.5888e-03  1.0193e-02  9.8586e+00  1.2250e-02  1.1506e-02  4.3130e-03  0:09:13 1755
   246  1.2233e-02  2.5081e-03  1.0026e-02  9.5262e+00  1.2191e-02  1.1587e-02  4.3184e-03  0:07:22 1754
   247  1.2161e-02  2.4266e-03  9.8681e-03  9.4047e+00  1.2119e-02  1.1668e-02  4.3163e-03  0:05:54 1753
   248  1.2070e-02  2.3441e-03  9.7307e-03  9.3993e+00  1.2028e-02  1.1756e-02  4.3119e-03  0:10:33 1752
   249  1.1946e-02  2.2610e-03  9.6156e-03  9.4483e+00  1.1906e-02  1.1879e-02  4.2987e-03  0:08:26 1751
   250  1.1798e-02  2.1793e-03  9.5126e-03  9.4475e+00  1.1759e-02  1.1988e-02  4.2854e-03  0:06:45 1750
   251  1.1634e-02  2.0984e-03  9.3786e-03  9.4505e+00  1.1596e-02  1.2076e-02  4.2611e-03  0:11:13 1749
   252  1.1445e-02  2.0229e-03  9.3052e-03  9.4398e+00  1.1408e-02  1.2157e-02  4.2301e-03  0:08:58 1748
   253  1.1229e-02  1.9563e-03  9.2754e-03  9.4452e+00  1.1194e-02  1.2230e-02  4.2044e-03  0:07:11 1747

  iter  continuity  x-velocity  y-velocity  z-velocity      energy           k       omega     time/iter
   254  1.0982e-02  1.8996e-03  9.2655e-03  9.4148e+00  1.0948e-02  1.2314e-02  4.1749e-03  0:11:33 1746
   255  1.0695e-02  1.8541e-03  9.2676e-03  9.3326e+00  1.0663e-02  1.2366e-02  4.1348e-03  0:09:14 1745
   256  1.0370e-02  1.8167e-03  9.2793e-03  9.1146e+00  1.0340e-02  1.2391e-02  4.0903e-03  0:07:23 1744
   257  9.9937e-03  1.8101e-03  9.2931e-03  8.7606e+00  9.9650e-03  1.2429e-02  4.0526e-03  0:11:43 1743
   258  9.5765e-03  1.8282e-03  9.3010e-03  8.3704e+00  9.5492e-03  1.2434e-02  4.0169e-03  0:09:22 1742
   259  9.1473e-03  1.8679e-03  9.3026e-03  8.1359e+00  9.1213e-03  1.2416e-02  3.9676e-03  0:07:29 1741
   260  8.7174e-03  1.9189e-03  9.2951e-03  8.0683e+00  8.6925e-03  1.2397e-02  3.9068e-03  0:05:59 1740
   261  8.3390e-03  1.9806e-03  9.2794e-03  8.3291e+00  8.3148e-03  1.2342e-02  3.8544e-03  0:10:35 1739
   262  8.0307e-03  2.0587e-03  9.2640e-03  8.5915e+00  8.0069e-03  1.2251e-02  3.8003e-03  0:08:28 1738
   263  7.8119e-03  2.1637e-03  9.2562e-03  9.0814e+00  7.7885e-03  1.2123e-02  3.7518e-03  0:06:46 1737
   264  7.7678e-03  2.2743e-03  9.2411e-03  9.6578e+00  7.7443e-03  1.2008e-02  3.7053e-03  0:11:12 1736

  iter  continuity  x-velocity  y-velocity  z-velocity      energy           k       omega     time/iter
   265  8.0316e-03  2.3904e-03  9.2250e-03  1.0481e+01  8.0075e-03  1.1863e-02  3.6366e-03  0:08:57 1735
   266  8.5311e-03  2.5272e-03  9.2189e-03  1.1800e+01  8.5056e-03  1.1695e-02  3.5627e-03  0:07:09 1734
   267  8.8738e-03  2.6679e-03  9.2196e-03  1.3320e+01  8.8477e-03  1.1528e-02  3.4759e-03  0:11:30 1733
   268  8.9689e-03  2.8027e-03  9.2346e-03  1.3844e+01  8.9428e-03  1.1340e-02  3.3962e-03  0:09:12 1732
   269  8.9265e-03  2.9350e-03  9.2712e-03  1.3726e+01  8.9010e-03  1.1165e-02  3.3142e-03  0:07:21 1731
   270  8.7726e-03  3.0689e-03  9.3333e-03  1.3925e+01  8.7482e-03  1.1017e-02  3.2371e-03  0:11:39 1730
   271  8.4971e-03  3.1978e-03  9.4211e-03  1.5234e+01  8.4741e-03  1.0909e-02  3.1684e-03  0:09:19 1729
   272  8.1175e-03  3.3243e-03  9.5346e-03  1.6924e+01  8.0963e-03  1.0798e-02  3.1146e-03  0:07:27 1728
   273  7.6772e-03  3.4515e-03  9.6664e-03  1.8063e+01  7.6582e-03  1.0676e-02  3.0768e-03  0:05:57 1727
   274  7.1818e-03  3.5699e-03  9.8077e-03  1.8531e+01  7.1653e-03  1.0553e-02  3.0388e-03  0:10:31 1726
   275  6.6290e-03  3.6743e-03  9.9536e-03  1.8048e+01  6.6152e-03  1.0429e-02  3.0178e-03  0:08:24 1725

  iter  continuity  x-velocity  y-velocity  z-velocity      energy           k       omega     time/iter
   276  6.0614e-03  3.7612e-03  1.0094e-02  1.7042e+01  6.0502e-03  1.0300e-02  2.9950e-03  0:06:43 1724
   277  5.5734e-03  3.8319e-03  1.0233e-02  1.5891e+01  5.5642e-03  1.0208e-02  2.9739e-03  0:11:07 1723
   278  5.3150e-03  3.8863e-03  1.0373e-02  1.5337e+01  5.3062e-03  1.0144e-02  2.9453e-03  0:08:53 1722
   279  5.3760e-03  3.9252e-03  1.0515e-02  1.6127e+01  5.3656e-03  1.0035e-02  2.9254e-03  0:07:06 1721
   280  5.7221e-03  3.9506e-03  1.0663e-02  1.8380e+01  5.7086e-03  9.9491e-03  2.9134e-03  0:05:41 1720
   281  6.2450e-03  3.9573e-03  1.0815e-02  2.1428e+01  6.2277e-03  9.9001e-03  2.9107e-03  0:10:16 1719
   282  6.8272e-03  3.9490e-03  1.0974e-02  2.4799e+01  6.8065e-03  9.8679e-03  2.9145e-03  0:08:13 1718
   283  7.3977e-03  3.9275e-03  1.1143e-02  2.7953e+01  7.3740e-03  9.8474e-03  2.9319e-03  0:06:34 1717
   284  7.9164e-03  3.8930e-03  1.1320e-02  3.0429e+01  7.8903e-03  9.8250e-03  2.9564e-03  0:10:58 1716
   285  8.3572e-03  3.8514e-03  1.1506e-02  3.2786e+01  8.3293e-03  9.8029e-03  2.9982e-03  0:08:46 1715
   286  8.7072e-03  3.8052e-03  1.1695e-02  3.4897e+01  8.6781e-03  9.7921e-03  3.0504e-03  0:07:01 1714

  iter  continuity  x-velocity  y-velocity  z-velocity      energy           k       omega     time/iter
   287  8.9608e-03  3.7593e-03  1.1884e-02  3.6415e+01  8.9310e-03  9.7835e-03  3.0955e-03  0:11:19 1713
   288  9.1196e-03  3.7173e-03  1.2073e-02  3.7491e+01  9.0897e-03  9.8010e-03  3.1495e-03  0:09:03 1712
   289  9.1856e-03  3.6799e-03  1.2255e-02  3.8328e+01  9.1560e-03  9.7995e-03  3.1944e-03  0:07:14 1711
   290  9.1554e-03  3.6492e-03  1.2430e-02  3.8470e+01  9.1263e-03  9.8022e-03  3.2335e-03  0:11:29 1710
   291  9.0313e-03  3.6287e-03  1.2595e-02  3.8655e+01  9.0031e-03  9.8010e-03  3.2801e-03  0:09:11 1709
   292  8.8396e-03  3.6198e-03  1.2748e-02  3.8754e+01  8.8126e-03  9.7985e-03  3.3060e-03  0:07:20 1708
   293  8.5999e-03  3.6216e-03  1.2887e-02  3.8821e+01  8.5742e-03  9.7902e-03  3.3435e-03  0:05:52 1707
   294  8.3331e-03  3.6342e-03  1.3013e-02  3.8982e+01  8.3088e-03  9.7993e-03  3.3793e-03  0:10:23 1706
   295  8.0580e-03  3.6552e-03  1.3127e-02  3.9351e+01  8.0350e-03  9.7691e-03  3.4359e-03  0:08:18 1705
   296  7.7924e-03  3.6840e-03  1.3233e-02  4.0191e+01  7.7708e-03  9.7581e-03  3.4643e-03  0:06:38 1704
   297  7.5517e-03  3.7190e-03  1.3334e-02  4.1586e+01  7.5313e-03  9.7645e-03  3.4867e-03  0:10:59 1703

  iter  continuity  x-velocity  y-velocity  z-velocity      energy           k       omega     time/iter
   298  7.3431e-03  3.7587e-03  1.3433e-02  4.3290e+01  7.3238e-03  9.7776e-03  3.4920e-03  0:08:47 1702
   299  7.1794e-03  3.8015e-03  1.3532e-02  4.5403e+01  7.1611e-03  9.7992e-03  3.5209e-03  0:07:01 1701
   300  7.0613e-03  3.8470e-03  1.3636e-02  4.7901e+01  7.0438e-03  9.8067e-03  3.5431e-03  0:11:17 1700
   301  6.9906e-03  3.8939e-03  1.3741e-02  5.0483e+01  6.9736e-03  9.8180e-03  3.5726e-03  0:09:01 1699
   302  6.9642e-03  3.9412e-03  1.3848e-02  5.3262e+01  6.9476e-03  9.8644e-03  3.6024e-03  0:07:13 1698
   303  6.9820e-03  3.9884e-03  1.3955e-02  5.5707e+01  6.9657e-03  9.9172e-03  3.6099e-03  0:05:46 1697
   304  7.0467e-03  4.0362e-03  1.4061e-02  5.7804e+01  7.0304e-03  9.9734e-03  3.5848e-03  0:10:16 1696
   305  7.1453e-03  4.0835e-03  1.4161e-02  5.9391e+01  7.1290e-03  1.0018e-02  3.5550e-03  0:08:12 1695
   306  7.2691e-03  4.1301e-03  1.4251e-02  6.0236e+01  7.2527e-03  1.0070e-02  3.5472e-03  0:06:34 1694
   307  7.4083e-03  4.1759e-03  1.4326e-02  6.0382e+01  7.3917e-03  1.0135e-02  3.5247e-03  0:10:53 1693
   308  7.5569e-03  4.2217e-03  1.4383e-02  5.9909e+01  7.5400e-03  1.0206e-02  3.5349e-03  0:08:42 1692

  iter  continuity  x-velocity  y-velocity  z-velocity      energy           k       omega     time/iter
   309  7.7125e-03  4.2666e-03  1.4417e-02  5.8988e+01  7.6953e-03  1.0257e-02  3.5451e-03  0:06:58 1691
   310  7.8731e-03  4.3104e-03  1.4427e-02  5.7792e+01  7.8556e-03  1.0299e-02  3.5334e-03  0:05:34 1690
   311  8.0361e-03  4.3526e-03  1.4411e-02  5.6537e+01  8.0182e-03  1.0350e-02  3.5298e-03  0:10:05 1689
   312  8.1936e-03  4.3926e-03  1.4370e-02  5.5256e+01  8.1753e-03  1.0384e-02  3.5682e-03  0:08:04 1688
   313  8.3412e-03  4.4291e-03  1.4306e-02  5.4463e+01  8.3226e-03  1.0432e-02  3.5844e-03  0:06:27 1687
   314  8.4741e-03  4.4627e-03  1.4214e-02  5.4299e+01  8.4550e-03  1.0481e-02  3.6014e-03  0:10:46 1686
   315  8.5879e-03  4.4923e-03  1.4091e-02  5.5155e+01  8.5685e-03  1.0521e-02  3.6097e-03  0:08:37 1685
   316  8.6855e-03  4.5194e-03  1.3939e-02  5.7087e+01  8.6657e-03  1.0543e-02  3.6068e-03  0:06:53 1684
   317  8.7594e-03  4.5407e-03  1.3750e-02  5.9577e+01  8.7393e-03  1.0578e-02  3.5947e-03  0:05:30 1683
   318  8.8090e-03  4.5559e-03  1.3531e-02  6.3316e+01  8.7886e-03  1.0599e-02  3.5967e-03  0:10:00 1682
   319  8.8384e-03  4.5666e-03  1.3292e-02  6.7972e+01  8.8178e-03  1.0625e-02  3.5969e-03  0:08:00 1681

  iter  continuity  x-velocity  y-velocity  z-velocity      energy           k       omega     time/iter
   320  8.8475e-03  4.5749e-03  1.3033e-02  7.3460e+01  8.8267e-03  1.0659e-02  3.5970e-03  0:06:24 1680
   321  8.8379e-03  4.5815e-03  1.2756e-02  7.9387e+01  8.8171e-03  1.0669e-02  3.5955e-03  0:10:43 1679
   322  8.8116e-03  4.5883e-03  1.2471e-02  8.5292e+01  8.7908e-03  1.0684e-02  3.5767e-03  0:08:34 1678
   323  8.7673e-03  4.5947e-03  1.2181e-02  9.0910e+01  8.7465e-03  1.0695e-02  3.5633e-03  0:06:51 1677
   324  8.7088e-03  4.6003e-03  1.1895e-02  9.5722e+01  8.6881e-03  1.0691e-02  3.5661e-03  0:11:04 1676
   325  8.6440e-03  4.6070e-03  1.1618e-02  9.9582e+01  8.6235e-03  1.0722e-02  3.5695e-03  0:08:51 1675
   326  8.5762e-03  4.6156e-03  1.1355e-02  1.0238e+02  8.5558e-03  1.0718e-02  3.5781e-03  0:07:04 1674
   327  8.5097e-03  4.6272e-03  1.1111e-02  1.0371e+02  8.4895e-03  1.0696e-02  3.5811e-03  0:11:14 1673
   328  8.4465e-03  4.6408e-03  1.0889e-02  1.0382e+02  8.4265e-03  1.0673e-02  3.5951e-03  0:08:59 1672
   329  8.3883e-03  4.6563e-03  1.0692e-02  1.0313e+02  8.3685e-03  1.0610e-02  3.6121e-03  0:07:11 1671
   330  8.3325e-03  4.6726e-03  1.0515e-02  1.0166e+02  8.3130e-03  1.0545e-02  3.6220e-03  0:05:44 1670

  iter  continuity  x-velocity  y-velocity  z-velocity      energy           k       omega     time/iter
   331  8.2992e-03  4.6886e-03  1.0356e-02  9.9523e+01  8.2799e-03  1.0505e-02  3.6237e-03  0:10:09 1669
   332  8.2869e-03  4.7047e-03  1.0213e-02  9.6700e+01  8.2679e-03  1.0520e-02  3.6331e-03  0:08:07 1668
   333  8.2959e-03  4.7205e-03  1.0088e-02  9.3412e+01  8.2771e-03  1.0572e-02  3.6579e-03  0:06:29 1667
   334  8.3217e-03  4.7352e-03  9.9758e-03  8.9820e+01  8.3033e-03  1.0571e-02  3.6638e-03  0:10:45 1666
   335  8.3683e-03  4.7497e-03  9.8789e-03  8.6089e+01  8.3502e-03  1.0577e-02  3.6655e-03  0:08:35 1665
   336  8.4305e-03  4.7635e-03  9.8010e-03  8.2354e+01  8.4128e-03  1.0563e-02  3.6696e-03  0:06:52 1664
   337  8.5007e-03  4.7758e-03  9.7409e-03  7.8752e+01  8.4834e-03  1.0527e-02  3.6779e-03  0:11:02 1663
   338  8.5817e-03  4.7867e-03  9.7053e-03  7.5356e+01  8.5648e-03  1.0523e-02  3.6923e-03  0:08:49 1662
   339  8.6801e-03  4.7976e-03  9.6957e-03  7.2564e+01  8.6638e-03  1.0539e-02  3.7058e-03  0:07:03 1661
   340  8.8085e-03  4.8079e-03  9.7091e-03  7.0660e+01  8.7929e-03  1.0552e-02  3.7185e-03  0:11:10 1660
   341  8.9428e-03  4.8177e-03  9.7444e-03  6.9605e+01  8.9278e-03  1.0524e-02  3.7260e-03  0:08:56 1659

  iter  continuity  x-velocity  y-velocity  z-velocity      energy           k       omega     time/iter
   342  9.1094e-03  4.8278e-03  9.8036e-03  6.9298e+01  9.0952e-03  1.0467e-02  3.7184e-03  0:07:08 1658
   343  9.3283e-03  4.8381e-03  9.8821e-03  6.9926e+01  9.3152e-03  1.0415e-02  3.7062e-03  0:11:14 1657
   344  9.6643e-03  4.8488e-03  9.9815e-03  7.1306e+01  9.6525e-03  1.0389e-02  3.6878e-03  0:08:59 1656
   345  1.0013e-02  4.8565e-03  1.0096e-02  7.3240e+01  1.0003e-02  1.0391e-02  3.6857e-03  0:07:11 1655
   346  1.0398e-02  4.8610e-03  1.0225e-02  7.5964e+01  1.0389e-02  1.0375e-02  3.6845e-03  0:11:15 1654
   347  1.0786e-02  4.8631e-03  1.0362e-02  7.8994e+01  1.0778e-02  1.0347e-02  3.6774e-03  0:09:00 1653
   348  1.1149e-02  4.8644e-03  1.0509e-02  8.2443e+01  1.1142e-02  1.0275e-02  3.6717e-03  0:07:12 1652
   349  1.1474e-02  4.8658e-03  1.0663e-02  8.6329e+01  1.1469e-02  1.0199e-02  3.6506e-03  0:11:15 1651
   350  1.1760e-02  4.8660e-03  1.0823e-02  9.0065e+01  1.1755e-02  1.0098e-02  3.6217e-03  0:09:00 1650
   351  1.2006e-02  4.8665e-03  1.0984e-02  9.3268e+01  1.2003e-02  1.0005e-02  3.5955e-03  0:07:12 1649
   352  1.2221e-02  4.8687e-03  1.1147e-02  9.6506e+01  1.2219e-02  9.9412e-03  3.5662e-03  0:11:15 1648

  iter  continuity  x-velocity  y-velocity  z-velocity      energy           k       omega     time/iter
   353  1.2410e-02  4.8727e-03  1.1308e-02  1.0012e+02  1.2409e-02  9.8858e-03  3.5516e-03  0:08:59 1647
   354  1.2579e-02  4.8779e-03  1.1462e-02  1.0367e+02  1.2578e-02  9.8278e-03  3.5327e-03  0:07:11 1646
   355  1.2721e-02  4.8845e-03  1.1606e-02  1.0731e+02  1.2720e-02  9.7667e-03  3.5094e-03  0:05:45 1645
   356  1.2828e-02  4.8921e-03  1.1735e-02  1.1080e+02  1.2829e-02  9.6822e-03  3.4782e-03  0:10:04 1644
   357  1.2900e-02  4.9006e-03  1.1855e-02  1.1397e+02  1.2901e-02  9.5802e-03  3.4413e-03  0:08:03 1643
   358  1.2933e-02  4.9098e-03  1.1960e-02  1.1694e+02  1.2935e-02  9.4743e-03  3.4211e-03  0:06:26 1642
   359  1.2933e-02  4.9180e-03  1.2049e-02  1.1985e+02  1.2935e-02  9.3680e-03  3.4059e-03  0:10:37 1641
   360  1.2902e-02  4.9261e-03  1.2123e-02  1.2257e+02  1.2905e-02  9.2678e-03  3.3734e-03  0:08:29 1640
   361  1.2843e-02  4.9336e-03  1.2181e-02  1.2474e+02  1.2847e-02  9.2052e-03  3.3371e-03  0:06:47 1639
   362  1.2760e-02  4.9392e-03  1.2225e-02  1.2638e+02  1.2763e-02  9.1380e-03  3.2932e-03  0:05:26 1638
   363  1.2646e-02  4.9411e-03  1.2256e-02  1.2746e+02  1.2650e-02  9.0502e-03  3.2633e-03  0:09:48 1637

  iter  continuity  x-velocity  y-velocity  z-velocity      energy           k       omega     time/iter
   364  1.2515e-02  4.9401e-03  1.2269e-02  1.2764e+02  1.2519e-02  8.9495e-03  3.2292e-03  0:07:50 1636
   365  1.2370e-02  4.9372e-03  1.2262e-02  1.2711e+02  1.2375e-02  8.8315e-03  3.1924e-03  0:06:16 1635
   366  1.2192e-02  4.9310e-03  1.2260e-02  1.2562e+02  1.2197e-02  8.7099e-03  3.1680e-03  0:10:27 1634
   367  1.1969e-02  4.9218e-03  1.2260e-02  1.2354e+02  1.1974e-02  8.6042e-03  3.1429e-03  0:08:21 1633
   368  1.1698e-02  4.9104e-03  1.2268e-02  1.2081e+02  1.1703e-02  8.5110e-03  3.1117e-03  0:06:41 1632
   369  1.1384e-02  4.8990e-03  1.2282e-02  1.1752e+02  1.1389e-02  8.4375e-03  3.0743e-03  0:05:21 1631
   370  1.1050e-02  4.8878e-03  1.2298e-02  1.1362e+02  1.1056e-02  8.3637e-03  3.0331e-03  0:09:42 1630
   371  1.0708e-02  4.8769e-03  1.2319e-02  1.0913e+02  1.0714e-02  8.2870e-03  2.9867e-03  0:07:46 1629
   372  1.0327e-02  4.8665e-03  1.2343e-02  1.0440e+02  1.0332e-02  8.2162e-03  2.9488e-03  0:06:12 1628
   373  9.8822e-03  4.8564e-03  1.2372e-02  9.9707e+01  9.8878e-03  8.1373e-03  2.9177e-03  0:10:23 1627
   374  9.3843e-03  4.8461e-03  1.2407e-02  9.5086e+01  9.3897e-03  8.0485e-03  2.8863e-03  0:08:18 1626

  iter  continuity  x-velocity  y-velocity  z-velocity      energy           k       omega     time/iter
   375  8.8589e-03  4.8355e-03  1.2448e-02  9.0528e+01  8.8640e-03  7.9575e-03  2.8551e-03  0:06:38 1625
   376  8.3266e-03  4.8247e-03  1.2496e-02  8.6226e+01  8.3314e-03  7.8696e-03  2.8266e-03  0:10:43 1624
   377  7.7862e-03  4.8135e-03  1.2548e-02  8.2307e+01  7.7906e-03  7.8107e-03  2.7989e-03  0:08:34 1623
   378  7.2098e-03  4.8010e-03  1.2604e-02  7.8921e+01  7.2137e-03  7.7549e-03  2.7676e-03  0:06:51 1622
   379  6.6184e-03  4.7863e-03  1.2664e-02  7.6038e+01  6.6216e-03  7.7021e-03  2.7401e-03  0:05:29 1621
   380  6.0492e-03  4.7693e-03  1.2729e-02  7.3678e+01  6.0518e-03  7.6532e-03  2.7126e-03  0:09:47 1620
   381  5.5128e-03  4.7500e-03  1.2796e-02  7.1754e+01  5.5149e-03  7.5953e-03  2.6853e-03  0:07:49 1619
   382  5.0161e-03  4.7276e-03  1.2863e-02  7.0123e+01  5.0176e-03  7.5338e-03  2.6620e-03  0:06:15 1618
   383  4.5574e-03  4.7023e-03  1.2928e-02  6.8748e+01  4.5585e-03  7.4840e-03  2.6415e-03  0:10:23 1617
   384  4.1342e-03  4.6741e-03  1.2993e-02  6.7562e+01  4.1348e-03  7.4347e-03  2.6220e-03  0:08:18 1616
   385  3.7454e-03  4.6428e-03  1.3055e-02  6.6271e+01  3.7455e-03  7.4002e-03  2.5993e-03  0:06:38 1615

  iter  continuity  x-velocity  y-velocity  z-velocity      energy           k       omega     time/iter
   386  3.3964e-03  4.6077e-03  1.3114e-02  6.5212e+01  3.3960e-03  7.3634e-03  2.5753e-03  0:10:41 1614
   387  3.1452e-03  4.5686e-03  1.3170e-02  6.4612e+01  3.1446e-03  7.3201e-03  2.5510e-03  0:08:33 1613
   388  2.9909e-03  4.5266e-03  1.3224e-02  6.4556e+01  2.9903e-03  7.2751e-03  2.5258e-03  0:06:50 1612
   389  3.0513e-03  4.4826e-03  1.3271e-02  6.4738e+01  3.0514e-03  7.2296e-03  2.5043e-03  0:05:28 1611
   390  3.2991e-03  4.4368e-03  1.3311e-02  6.5229e+01  3.3004e-03  7.1820e-03  2.4946e-03  0:09:44 1610
   391  3.6678e-03  4.3895e-03  1.3344e-02  6.5991e+01  3.6703e-03  7.1278e-03  2.4758e-03  0:07:47 1609
   392  4.1289e-03  4.3414e-03  1.3371e-02  6.6979e+01  4.1327e-03  7.0713e-03  2.4556e-03  0:06:13 1608
   393  4.6535e-03  4.2927e-03  1.3390e-02  6.8114e+01  4.6587e-03  7.0299e-03  2.4380e-03  0:10:20 1607
   394  5.2495e-03  4.2436e-03  1.3400e-02  6.9371e+01  5.2561e-03  6.9906e-03  2.4245e-03  0:08:16 1606
   395  5.8905e-03  4.1946e-03  1.3400e-02  7.0683e+01  5.8983e-03  6.9535e-03  2.4107e-03  0:06:36 1605
   396  6.4021e-03  4.1463e-03  1.3390e-02  7.2088e+01  6.4108e-03  6.9111e-03  2.3989e-03  0:10:38 1604

  iter  continuity  x-velocity  y-velocity  z-velocity      energy           k       omega     time/iter
   397  6.5688e-03  4.0984e-03  1.3366e-02  7.3624e+01  6.5776e-03  6.8670e-03  2.3843e-03  0:08:30 1603
   398  6.8258e-03  4.0521e-03  1.3334e-02  7.5306e+01  6.8348e-03  6.8154e-03  2.3717e-03  0:06:48 1602
   399  7.1148e-03  4.0073e-03  1.3291e-02  7.7059e+01  7.1241e-03  6.7598e-03  2.3566e-03  0:05:26 1601
   400  7.3526e-03  3.9638e-03  1.3237e-02  7.8890e+01  7.3620e-03  6.7028e-03  2.3438e-03  0:09:41 1600
   401  7.5281e-03  3.9217e-03  1.3171e-02  8.0739e+01  7.5375e-03  6.6443e-03  2.3298e-03  0:07:44 1599
   402  7.6585e-03  3.8815e-03  1.3095e-02  8.2596e+01  7.6676e-03  6.5848e-03  2.3177e-03  0:06:11 1598
   403  7.7428e-03  3.8430e-03  1.3014e-02  8.4351e+01  7.7516e-03  6.5253e-03  2.3041e-03  0:10:16 1597
   404  7.7868e-03  3.8066e-03  1.2927e-02  8.6041e+01  7.7952e-03  6.4774e-03  2.2884e-03  0:08:13 1596
   405  7.8010e-03  3.7701e-03  1.2835e-02  8.7648e+01  7.8089e-03  6.4337e-03  2.2693e-03  0:06:34 1595
   406  7.8030e-03  3.7346e-03  1.2742e-02  8.9200e+01  7.8103e-03  6.3872e-03  2.2543e-03  0:05:15 1594
   407  7.7668e-03  3.7007e-03  1.2648e-02  9.0760e+01  7.7734e-03  6.3380e-03  2.2430e-03  0:09:30 1593

  iter  continuity  x-velocity  y-velocity  z-velocity      energy           k       omega     time/iter
   408  7.6868e-03  3.6669e-03  1.2554e-02  9.2402e+01  7.6926e-03  6.2845e-03  2.2332e-03  0:07:36 1592
   409  7.5679e-03  3.6336e-03  1.2461e-02  9.4145e+01  7.5727e-03  6.2325e-03  2.2256e-03  0:06:05 1591
   410  7.4542e-03  3.6005e-03  1.2369e-02  9.5842e+01  7.4579e-03  6.1785e-03  2.2190e-03  0:10:09 1590
   411  7.2208e-03  3.5687e-03  1.2281e-02  9.7514e+01  7.2232e-03  6.1285e-03  2.2078e-03  0:08:07 1589
   412  6.9964e-03  3.5368e-03  1.2196e-02  9.9120e+01  6.9974e-03  6.0853e-03  2.2016e-03  0:06:30 1588
   413  6.7905e-03  3.5052e-03  1.2112e-02  1.0074e+02  6.7901e-03  6.0455e-03  2.1942e-03  0:10:29 1587
   414  6.6059e-03  3.4736e-03  1.2034e-02  1.0230e+02  6.6040e-03  6.0042e-03  2.1840e-03  0:08:23 1586
   415  6.4653e-03  3.4419e-03  1.1963e-02  1.0378e+02  6.4621e-03  5.9626e-03  2.1741e-03  0:06:42 1585
   416  6.3541e-03  3.4108e-03  1.1897e-02  1.0526e+02  6.3496e-03  5.9273e-03  2.1664e-03  0:10:38 1584
   417  6.2660e-03  3.3797e-03  1.1837e-02  1.0683e+02  6.2603e-03  5.8923e-03  2.1569e-03  0:08:30 1583
   418  6.2459e-03  3.3493e-03  1.1784e-02  1.0848e+02  6.2392e-03  5.8600e-03  2.1480e-03  0:06:48 1582

  iter  continuity  x-velocity  y-velocity  z-velocity      energy           k       omega     time/iter
   419  6.2793e-03  3.3208e-03  1.1735e-02  1.1010e+02  6.2719e-03  5.8241e-03  2.1443e-03  0:05:26 1581
   420  6.3442e-03  3.2949e-03  1.1691e-02  1.1167e+02  6.3362e-03  5.7810e-03  2.1431e-03  0:09:37 1580
   421  6.4193e-03  3.2721e-03  1.1655e-02  1.1317e+02  6.4108e-03  5.7361e-03  2.1370e-03  0:07:41 1579
   422  6.5006e-03  3.2523e-03  1.1628e-02  1.1417e+02  6.4918e-03  5.6940e-03  2.1302e-03  0:06:09 1578
   423  6.5838e-03  3.2378e-03  1.1609e-02  1.1518e+02  6.5747e-03  5.6526e-03  2.1224e-03  0:10:10 1577
   424  6.6629e-03  3.2294e-03  1.1596e-02  1.1664e+02  6.6536e-03  5.6097e-03  2.1143e-03  0:08:08 1576
   425  6.7342e-03  3.2280e-03  1.1588e-02  1.1872e+02  6.7247e-03  5.5689e-03  2.1049e-03  0:06:30 1575
   426  6.7830e-03  3.2342e-03  1.1584e-02  1.2161e+02  6.7733e-03  5.5291e-03  2.0955e-03  0:10:27 1574
   427  6.8313e-03  3.2479e-03  1.1583e-02  1.2582e+02  6.8215e-03  5.4897e-03  2.0824e-03  0:08:21 1573
   428  6.8766e-03  3.2688e-03  1.1585e-02  1.2913e+02  6.8666e-03  5.4521e-03  2.0714e-03  0:06:41 1572
   429  6.9489e-03  3.2952e-03  1.1588e-02  1.3056e+02  6.9390e-03  5.4162e-03  2.0660e-03  0:05:20 1571

  iter  continuity  x-velocity  y-velocity  z-velocity      energy           k       omega     time/iter
   430  7.0326e-03  3.3265e-03  1.1593e-02  1.3087e+02  7.0229e-03  5.3821e-03  2.0549e-03  0:09:30 1570
   431  7.1443e-03  3.3613e-03  1.1597e-02  1.3095e+02  7.1349e-03  5.3438e-03  2.0442e-03  0:07:36 1569
   432  7.2724e-03  3.3986e-03  1.1602e-02  1.3076e+02  7.2635e-03  5.3031e-03  2.0339e-03  0:06:04 1568
   433  7.4012e-03  3.4370e-03  1.1606e-02  1.3029e+02  7.3927e-03  5.2707e-03  2.0222e-03  0:10:05 1567
   434  7.5215e-03  3.4748e-03  1.1610e-02  1.2954e+02  7.5135e-03  5.2393e-03  2.0146e-03  0:08:03 1566
   435  7.6302e-03  3.5110e-03  1.1610e-02  1.2866e+02  7.6226e-03  5.2084e-03  2.0073e-03  0:06:27 1565
   436  7.6791e-03  3.5443e-03  1.1608e-02  1.2765e+02  7.6718e-03  5.1788e-03  1.9964e-03  0:10:22 1564
   437  7.6829e-03  3.5732e-03  1.1602e-02  1.2667e+02  7.6757e-03  5.1514e-03  1.9806e-03  0:08:17 1563
   438  7.6407e-03  3.5920e-03  1.1588e-02  1.2566e+02  7.6335e-03  5.1236e-03  1.9735e-03  0:11:50 1562
   439  7.5723e-03  3.6039e-03  1.1579e-02  1.2467e+02  7.5649e-03  5.0921e-03  1.9668e-03  0:09:28 1561
   440  7.4896e-03  3.6110e-03  1.1577e-02  1.2377e+02  7.4820e-03  5.0632e-03  1.9602e-03  0:07:34 1560

  iter  continuity  x-velocity  y-velocity  z-velocity      energy           k       omega     time/iter
   441  7.3872e-03  3.6107e-03  1.1576e-02  1.2279e+02  7.3795e-03  5.0392e-03  1.9568e-03  0:11:15 1559
   442  7.2719e-03  3.6023e-03  1.1577e-02  1.2177e+02  7.2639e-03  5.0149e-03  1.9441e-03  0:08:59 1558
   443  7.1747e-03  3.5849e-03  1.1580e-02  1.2081e+02  7.1665e-03  4.9884e-03  1.9355e-03  0:07:11 1557
   444  7.0660e-03  3.5595e-03  1.1581e-02  1.1975e+02  7.0577e-03  4.9597e-03  1.9314e-03  0:05:45 1556
   445  6.9511e-03  3.5282e-03  1.1576e-02  1.1877e+02  6.9427e-03  4.9298e-03  1.9260e-03  0:09:47 1555
   446  6.8494e-03  3.4890e-03  1.1569e-02  1.1783e+02  6.8409e-03  4.8986e-03  1.9218e-03  0:07:49 1554
   447  6.7467e-03  3.4404e-03  1.1561e-02  1.1693e+02  6.7382e-03  4.8666e-03  1.9167e-03  0:06:15 1553
   448  6.6439e-03  3.3743e-03  1.1551e-02  1.1587e+02  6.6354e-03  4.8354e-03  1.9108e-03  0:10:10 1552
   449  6.5380e-03  3.3178e-03  1.1542e-02  1.1476e+02  6.5295e-03  4.8034e-03  1.9068e-03  0:08:08 1551
   450  6.4286e-03  3.2675e-03  1.1534e-02  1.1357e+02  6.4202e-03  4.7700e-03  1.9071e-03  0:06:30 1550
   451  6.3038e-03  3.2208e-03  1.1526e-02  1.1240e+02  6.2954e-03  4.7387e-03  1.9043e-03  0:05:12 1549

  iter  continuity  x-velocity  y-velocity  z-velocity      energy           k       omega     time/iter
   452  6.1909e-03  3.1758e-03  1.1518e-02  1.1099e+02  6.1827e-03  4.7068e-03  1.9033e-03  0:09:19 1548
   453  6.0973e-03  3.1299e-03  1.1511e-02  1.0944e+02  6.0892e-03  4.6771e-03  1.9056e-03  0:07:27 1547
   454  6.0194e-03  3.0812e-03  1.1504e-02  1.0772e+02  6.0115e-03  4.6480e-03  1.9085e-03  0:05:57 1546
   455  5.9599e-03  3.0289e-03  1.1496e-02  1.0610e+02  5.9521e-03  4.6202e-03  1.9095e-03  0:09:55 1545
   456  5.9104e-03  2.9732e-03  1.1488e-02  1.0445e+02  5.9028e-03  4.5925e-03  1.9055e-03  0:07:55 1544
   457  5.8670e-03  2.9153e-03  1.1478e-02  1.0278e+02  5.8596e-03  4.5626e-03  1.8973e-03  0:06:20 1543
   458  5.8256e-03  2.8550e-03  1.1468e-02  1.0122e+02  5.8183e-03  4.5318e-03  1.8886e-03  0:05:04 1542
   459  5.7811e-03  2.7931e-03  1.1457e-02  9.9607e+01  5.7739e-03  4.5039e-03  1.8770e-03  0:09:11 1541
   460  5.7291e-03  2.7304e-03  1.1447e-02  9.7851e+01  5.7220e-03  4.4749e-03  1.8740e-03  0:07:21 1540
   461  5.6621e-03  2.6681e-03  1.1436e-02  9.5703e+01  5.6550e-03  4.4424e-03  1.8724e-03  0:05:52 1539
   462  5.5760e-03  2.6066e-03  1.1424e-02  9.3255e+01  5.5689e-03  4.4074e-03  1.8674e-03  0:09:49 1538

  iter  continuity  x-velocity  y-velocity  z-velocity      energy           k       omega     time/iter
   463  5.4697e-03  2.5477e-03  1.1412e-02  9.0719e+01  5.4626e-03  4.3715e-03  1.8573e-03  0:07:51 1537
   464  5.3466e-03  2.4912e-03  1.1400e-02  8.8220e+01  5.3397e-03  4.3369e-03  1.8484e-03  0:06:17 1536
   465  5.2236e-03  2.4399e-03  1.1388e-02  8.5863e+01  5.2168e-03  4.3012e-03  1.8395e-03  0:10:08 1535
   466  5.0955e-03  2.3939e-03  1.1375e-02  8.3621e+01  5.0889e-03  4.2681e-03  1.8281e-03  0:08:06 1534
   467  4.9777e-03  2.3542e-03  1.1360e-02  8.1538e+01  4.9714e-03  4.2359e-03  1.8188e-03  0:06:29 1533
   468  4.8709e-03  2.3206e-03  1.1343e-02  7.9906e+01  4.8650e-03  4.2059e-03  1.8136e-03  0:10:17 1532
   469  4.7713e-03  2.2922e-03  1.1323e-02  7.8481e+01  4.7658e-03  4.1782e-03  1.8035e-03  0:08:13 1531
   470  4.6797e-03  2.2696e-03  1.1300e-02  7.7243e+01  4.6746e-03  4.1530e-03  1.7923e-03  0:06:34 1530
   471  4.6077e-03  2.2491e-03  1.1279e-02  7.6178e+01  4.6032e-03  4.1271e-03  1.7798e-03  0:05:15 1529
   472  4.5512e-03  2.2306e-03  1.1255e-02  7.4974e+01  4.5470e-03  4.0998e-03  1.7682e-03  0:09:18 1528
   473  4.5071e-03  2.2135e-03  1.1229e-02  7.3760e+01  4.5034e-03  4.0718e-03  1.7600e-03  0:07:26 1527

  iter  continuity  x-velocity  y-velocity  z-velocity      energy           k       omega     time/iter
   474  4.4709e-03  2.1976e-03  1.1197e-02  7.2562e+01  4.4674e-03  4.0443e-03  1.7513e-03  0:05:56 1526
   475  4.4335e-03  2.1817e-03  1.1160e-02  7.1297e+01  4.4302e-03  4.0172e-03  1.7469e-03  0:09:50 1525
   476  4.3949e-03  2.1656e-03  1.1115e-02  7.0015e+01  4.3918e-03  3.9874e-03  1.7399e-03  0:07:52 1524
   477  4.3524e-03  2.1499e-03  1.1064e-02  6.8927e+01  4.3493e-03  3.9565e-03  1.7316e-03  0:06:17 1523
   478  4.2938e-03  2.1348e-03  1.1007e-02  6.7973e+01  4.2907e-03  3.9254e-03  1.7206e-03  0:10:06 1522
   479  4.2192e-03  2.1200e-03  1.0946e-02  6.7339e+01  4.2161e-03  3.8941e-03  1.7112e-03  0:08:04 1521
   480  4.1317e-03  2.1057e-03  1.0882e-02  6.6944e+01  4.1285e-03  3.8624e-03  1.7026e-03  0:06:27 1520
   481  4.0198e-03  2.0923e-03  1.0814e-02  6.6350e+01  4.0166e-03  3.8307e-03  1.6915e-03  0:05:10 1519
   482  3.9009e-03  2.0802e-03  1.0745e-02  6.6223e+01  3.8976e-03  3.8032e-03  1.6861e-03  0:09:11 1518
   483  3.7877e-03  2.0696e-03  1.0676e-02  6.6308e+01  3.7843e-03  3.7756e-03  1.6796e-03  0:07:21 1517
   484  3.6758e-03  2.0606e-03  1.0607e-02  6.6748e+01  3.6724e-03  3.7463e-03  1.6712e-03  0:05:52 1516

  iter  continuity  x-velocity  y-velocity  z-velocity      energy           k       omega     time/iter
   485  3.5665e-03  2.0529e-03  1.0541e-02  6.7539e+01  3.5631e-03  3.7170e-03  1.6616e-03  0:09:45 1515
   486  3.4626e-03  2.0462e-03  1.0477e-02  6.8434e+01  3.4592e-03  3.6894e-03  1.6527e-03  0:07:47 1514
   487  3.3642e-03  2.0403e-03  1.0416e-02  6.9320e+01  3.3608e-03  3.6645e-03  1.6420e-03  0:06:14 1513
   488  3.2732e-03  2.0349e-03  1.0358e-02  7.0123e+01  3.2699e-03  3.6426e-03  1.6365e-03  0:10:01 1512
   489  3.1892e-03  2.0294e-03  1.0304e-02  7.0769e+01  3.1860e-03  3.6202e-03  1.6305e-03  0:08:01 1511
   490  3.1138e-03  2.0241e-03  1.0254e-02  7.1220e+01  3.1107e-03  3.5973e-03  1.6265e-03  0:06:24 1510
   491  3.0467e-03  2.0190e-03  1.0208e-02  7.1320e+01  3.0437e-03  3.5747e-03  1.6232e-03  0:05:07 1509
   492  2.9840e-03  2.0138e-03  1.0167e-02  7.1047e+01  2.9811e-03  3.5547e-03  1.6207e-03  0:09:07 1508
   493  2.9216e-03  2.0086e-03  1.0130e-02  7.0386e+01  2.9189e-03  3.5378e-03  1.6173e-03  0:07:17 1507
   494  2.8660e-03  2.0030e-03  1.0097e-02  6.9308e+01  2.8635e-03  3.5217e-03  1.6146e-03  0:05:50 1506
   495  2.8199e-03  1.9973e-03  1.0065e-02  6.7670e+01  2.8176e-03  3.5078e-03  1.6128e-03  0:09:41 1505

  iter  continuity  x-velocity  y-velocity  z-velocity      energy           k       omega     time/iter
   496  2.7804e-03  1.9911e-03  1.0036e-02  6.5535e+01  2.7783e-03  3.4974e-03  1.6120e-03  0:07:44 1504
   497  2.7553e-03  1.9854e-03  1.0008e-02  6.2893e+01  2.7535e-03  3.4895e-03  1.6113e-03  0:06:11 1503
   498  2.7411e-03  1.9803e-03  9.9847e-03  5.9876e+01  2.7395e-03  3.4814e-03  1.6095e-03  0:09:57 1502
   499  2.7407e-03  1.9730e-03  9.9633e-03  5.6560e+01  2.7394e-03  3.4707e-03  1.6070e-03  0:07:57 1501
   500  2.7584e-03  1.9657e-03  9.9453e-03  5.3108e+01  2.7575e-03  3.4615e-03  1.6074e-03  0:06:22 1500
   501  2.7962e-03  1.9578e-03  9.9310e-03  4.9659e+01  2.7955e-03  3.4543e-03  1.6078e-03  0:05:05 1499
   502  2.8689e-03  1.9489e-03  9.9200e-03  4.6265e+01  2.8685e-03  3.4471e-03  1.6062e-03  0:09:04 1498
   503  2.9552e-03  1.9402e-03  9.9131e-03  4.3188e+01  2.9551e-03  3.4422e-03  1.6060e-03  0:07:15 1497
   504  3.0448e-03  1.9320e-03  9.9095e-03  4.0544e+01  3.0450e-03  3.4365e-03  1.6055e-03  0:05:47 1496
   505  3.1488e-03  1.9227e-03  9.9093e-03  3.8386e+01  3.1491e-03  3.4302e-03  1.6036e-03  0:09:37 1495
   506  3.1955e-03  1.9113e-03  9.9115e-03  3.6726e+01  3.1960e-03  3.4237e-03  1.6010e-03  0:07:41 1494

  iter  continuity  x-velocity  y-velocity  z-velocity      energy           k       omega     time/iter
   507  3.2528e-03  1.8988e-03  9.9163e-03  3.5516e+01  3.2534e-03  3.4220e-03  1.5989e-03  0:06:09 1493
   508  3.3855e-03  1.8868e-03  9.9233e-03  3.4825e+01  3.3864e-03  3.4209e-03  1.5986e-03  0:04:55 1492
   509  3.5864e-03  1.8734e-03  9.9282e-03  3.4462e+01  3.5876e-03  3.4194e-03  1.5980e-03  0:08:54 1491
   510  3.6980e-03  1.8584e-03  9.9350e-03  3.4424e+01  3.6993e-03  3.4153e-03  1.5984e-03  0:07:07 1490
   511  3.7913e-03  1.8419e-03  9.9476e-03  3.4577e+01  3.7927e-03  3.4073e-03  1.5974e-03  0:05:41 1489
   512  3.9339e-03  1.8258e-03  9.9599e-03  3.4766e+01  3.9354e-03  3.4001e-03  1.5961e-03  0:09:30 1488
   513  4.0565e-03  1.8097e-03  9.9695e-03  3.4839e+01  4.0582e-03  3.3962e-03  1.5959e-03  0:07:36 1487
   514  4.1563e-03  1.7940e-03  9.9767e-03  3.4927e+01  4.1581e-03  3.3947e-03  1.5926e-03  0:06:05 1486
   515  4.1749e-03  1.7781e-03  9.9812e-03  3.5019e+01  4.1767e-03  3.3953e-03  1.5871e-03  0:09:48 1485
   516  4.1038e-03  1.7617e-03  9.9837e-03  3.5158e+01  4.1053e-03  3.3973e-03  1.5836e-03  0:07:50 1484
   517  3.9790e-03  1.7446e-03  9.9842e-03  3.5281e+01  3.9803e-03  3.3992e-03  1.5793e-03  0:06:16 1483

  iter  continuity  x-velocity  y-velocity  z-velocity      energy           k       omega     time/iter
   518  3.8201e-03  1.7267e-03  9.9789e-03  3.5417e+01  3.8209e-03  3.4015e-03  1.5733e-03  0:09:57 1482
   519  3.6380e-03  1.7095e-03  9.9637e-03  3.5470e+01  3.6384e-03  3.4034e-03  1.5660e-03  0:07:57 1481
   520  3.4364e-03  1.6912e-03  9.9550e-03  3.5401e+01  3.4362e-03  3.4060e-03  1.5581e-03  0:06:22 1480
   521  3.2223e-03  1.6720e-03  9.9501e-03  3.5294e+01  3.2214e-03  3.4100e-03  1.5514e-03  0:05:05 1479
   522  3.0039e-03  1.6537e-03  9.9472e-03  3.5176e+01  3.0023e-03  3.4131e-03  1.5440e-03  0:08:59 1478
   523  2.7931e-03  1.6368e-03  9.9465e-03  3.4991e+01  2.7907e-03  3.4149e-03  1.5356e-03  0:07:11 1477
   524  2.5964e-03  1.6206e-03  9.9481e-03  3.4703e+01  2.5933e-03  3.4206e-03  1.5276e-03  0:05:45 1476
   525  2.4265e-03  1.6040e-03  9.9520e-03  3.4337e+01  2.4226e-03  3.4216e-03  1.5219e-03  0:09:31 1475
   526  2.2938e-03  1.5882e-03  9.9565e-03  3.3935e+01  2.2892e-03  3.4232e-03  1.5152e-03  0:07:36 1474
   527  2.2008e-03  1.5717e-03  9.9633e-03  3.3384e+01  2.1958e-03  3.4248e-03  1.5065e-03  0:06:05 1473
   528  2.1536e-03  1.5558e-03  9.9729e-03  3.2534e+01  2.1483e-03  3.4265e-03  1.4998e-03  0:09:46 1472

  iter  continuity  x-velocity  y-velocity  z-velocity      energy           k       omega     time/iter
   529  2.1509e-03  1.5407e-03  9.9855e-03  3.1579e+01  2.1456e-03  3.4294e-03  1.4916e-03  0:07:48 1471
   530  2.1879e-03  1.5269e-03  9.9999e-03  3.0619e+01  2.1827e-03  3.4318e-03  1.4825e-03  0:06:15 1470
   531  2.2521e-03  1.5133e-03  1.0015e-02  2.9642e+01  2.2472e-03  3.4338e-03  1.4740e-03  0:04:59 1469
   532  2.3404e-03  1.4995e-03  1.0029e-02  2.8691e+01  2.3359e-03  3.4363e-03  1.4636e-03  0:08:53 1468
   533  2.4462e-03  1.4861e-03  1.0043e-02  2.7777e+01  2.4422e-03  3.4351e-03  1.4563e-03  0:07:06 1467
   534  2.5631e-03  1.4733e-03  1.0055e-02  2.6882e+01  2.5594e-03  3.4335e-03  1.4486e-03  0:05:41 1466
   535  2.6939e-03  1.4606e-03  1.0067e-02  2.6096e+01  2.6906e-03  3.4306e-03  1.4406e-03  0:09:25 1465
   536  2.8395e-03  1.4473e-03  1.0078e-02  2.5385e+01  2.8367e-03  3.4248e-03  1.4343e-03  0:07:32 1464
   537  2.9996e-03  1.4351e-03  1.0084e-02  2.4682e+01  2.9973e-03  3.4182e-03  1.4286e-03  0:06:01 1463
   538  3.1783e-03  1.4239e-03  1.0089e-02  2.4044e+01  3.1765e-03  3.4099e-03  1.4227e-03  0:09:41 1462
   539  3.3834e-03  1.4129e-03  1.0091e-02  2.3448e+01  3.3821e-03  3.4014e-03  1.4147e-03  0:07:45 1461

  iter  continuity  x-velocity  y-velocity  z-velocity      energy           k       omega     time/iter
   540  3.5836e-03  1.4025e-03  1.0091e-02  2.2897e+01  3.5828e-03  3.3956e-03  1.4077e-03  0:06:11 1460
   541  3.8118e-03  1.3933e-03  1.0087e-02  2.2420e+01  3.8115e-03  3.3891e-03  1.4015e-03  0:04:57 1459
   542  4.0893e-03  1.3854e-03  1.0081e-02  2.2036e+01  4.0895e-03  3.3796e-03  1.3969e-03  0:08:49 1458
   543  4.4710e-03  1.3777e-03  1.0074e-02  2.1716e+01  4.4719e-03  3.3692e-03  1.3933e-03  0:07:03 1457
   544  4.8436e-03  1.3703e-03  1.0069e-02  2.1313e+01  4.8451e-03  3.3596e-03  1.3891e-03  0:05:38 1456
   545  5.2093e-03  1.3660e-03  1.0065e-02  2.0895e+01  5.2113e-03  3.3492e-03  1.3866e-03  0:09:21 1455
   546  5.4916e-03  1.3631e-03  1.0063e-02  2.0532e+01  5.4941e-03  3.3392e-03  1.3827e-03  0:07:29 1454
   547  5.7070e-03  1.3605e-03  1.0057e-02  2.0285e+01  5.7097e-03  3.3306e-03  1.3784e-03  0:05:59 1453
   548  5.9061e-03  1.3587e-03  1.0042e-02  2.0108e+01  5.9091e-03  3.3216e-03  1.3716e-03  0:04:47 1452
   549  6.1006e-03  1.3574e-03  1.0022e-02  1.9935e+01  6.1037e-03  3.3119e-03  1.3681e-03  0:08:39 1451
   550  6.2081e-03  1.3559e-03  1.0000e-02  1.9681e+01  6.2113e-03  3.2996e-03  1.3637e-03  0:06:55 1450

  iter  continuity  x-velocity  y-velocity  z-velocity      energy           k       omega     time/iter
   551  6.2496e-03  1.3548e-03  9.9797e-03  1.9398e+01  6.2528e-03  3.2880e-03  1.3581e-03  0:05:32 1449
   552  6.2461e-03  1.3537e-03  9.9581e-03  1.9291e+01  6.2492e-03  3.2796e-03  1.3566e-03  0:09:15 1448
   553  6.1732e-03  1.3528e-03  9.9370e-03  1.9116e+01  6.1760e-03  3.2693e-03  1.3533e-03  0:07:24 1447
   554  6.0643e-03  1.3522e-03  9.9177e-03  1.8858e+01  6.0668e-03  3.2594e-03  1.3460e-03  0:05:55 1446
   555  5.9186e-03  1.3516e-03  9.9005e-03  1.8778e+01  5.9207e-03  3.2525e-03  1.3422e-03  0:09:33 1445
   556  5.7379e-03  1.3509e-03  9.8854e-03  1.8624e+01  5.7396e-03  3.2463e-03  1.3399e-03  0:07:38 1444
   557  5.5205e-03  1.3497e-03  9.8743e-03  1.8203e+01  5.5216e-03  3.2396e-03  1.3377e-03  0:06:06 1443
   558  5.2992e-03  1.3484e-03  9.8660e-03  1.7906e+01  5.2997e-03  3.2321e-03  1.3372e-03  0:04:53 1442
   559  5.0849e-03  1.3465e-03  9.8608e-03  1.7500e+01  5.0849e-03  3.2254e-03  1.3363e-03  0:08:42 1441
   560  4.8872e-03  1.3447e-03  9.8589e-03  1.7050e+01  4.8867e-03  3.2184e-03  1.3377e-03  0:06:57 1440
   561  4.7077e-03  1.3434e-03  9.8594e-03  1.6732e+01  4.7067e-03  3.2119e-03  1.3369e-03  0:05:34 1439

  iter  continuity  x-velocity  y-velocity  z-velocity      energy           k       omega     time/iter
   562  4.5463e-03  1.3434e-03  9.8641e-03  1.6353e+01  4.5448e-03  3.2065e-03  1.3373e-03  0:09:14 1438
   563  4.3981e-03  1.3444e-03  9.8724e-03  1.5950e+01  4.3961e-03  3.2025e-03  1.3393e-03  0:07:23 1437
   564  4.2615e-03  1.3463e-03  9.8856e-03  1.5573e+01  4.2592e-03  3.2018e-03  1.3408e-03  0:05:54 1436
   565  4.1393e-03  1.3485e-03  9.9020e-03  1.5266e+01  4.1366e-03  3.2037e-03  1.3440e-03  0:04:43 1435
   566  4.0256e-03  1.3511e-03  9.9187e-03  1.4973e+01  4.0225e-03  3.2054e-03  1.3470e-03  0:08:33 1434
   567  3.9299e-03  1.3540e-03  9.9360e-03  1.4737e+01  3.9266e-03  3.2117e-03  1.3475e-03  0:06:50 1433
   568  3.8476e-03  1.3573e-03  9.9536e-03  1.4580e+01  3.8441e-03  3.2196e-03  1.3498e-03  0:05:28 1432
   569  3.7792e-03  1.3604e-03  9.9727e-03  1.4444e+01  3.7754e-03  3.2272e-03  1.3529e-03  0:09:08 1431
   570  3.7239e-03  1.3641e-03  9.9937e-03  1.4335e+01  3.7200e-03  3.2343e-03  1.3563e-03  0:07:18 1430
   571  3.6862e-03  1.3681e-03  1.0017e-02  1.4245e+01  3.6823e-03  3.2423e-03  1.3594e-03  0:05:51 1429
   572  3.6668e-03  1.3722e-03  1.0041e-02  1.4188e+01  3.6629e-03  3.2494e-03  1.3611e-03  0:09:26 1428

  iter  continuity  x-velocity  y-velocity  z-velocity      energy           k       omega     time/iter
   573  3.6608e-03  1.3767e-03  1.0066e-02  1.4086e+01  3.6569e-03  3.2535e-03  1.3636e-03  0:07:32 1427
   574  3.6682e-03  1.3813e-03  1.0091e-02  1.3952e+01  3.6643e-03  3.2574e-03  1.3660e-03  0:06:02 1426
   575  3.6894e-03  1.3863e-03  1.0118e-02  1.3821e+01  3.6856e-03  3.2625e-03  1.3689e-03  0:09:34 1425
   576  3.7206e-03  1.3916e-03  1.0144e-02  1.3716e+01  3.7169e-03  3.2671e-03  1.3727e-03  0:07:39 1424
   577  3.7600e-03  1.3972e-03  1.0171e-02  1.3689e+01  3.7564e-03  3.2698e-03  1.3786e-03  0:06:07 1423
   578  3.8037e-03  1.4027e-03  1.0197e-02  1.3701e+01  3.8001e-03  3.2723e-03  1.3851e-03  0:04:53 1422
   579  3.8453e-03  1.4081e-03  1.0223e-02  1.3682e+01  3.8417e-03  3.2719e-03  1.3890e-03  0:08:39 1421
   580  3.8756e-03  1.4135e-03  1.0248e-02  1.3673e+01  3.8722e-03  3.2722e-03  1.3938e-03  0:06:55 1420
   581  3.8907e-03  1.4188e-03  1.0274e-02  1.3623e+01  3.8872e-03  3.2759e-03  1.3991e-03  0:05:31 1419
   582  3.8977e-03  1.4238e-03  1.0299e-02  1.3598e+01  3.8942e-03  3.2768e-03  1.4063e-03  0:09:09 1418
   583  3.8920e-03  1.4283e-03  1.0322e-02  1.3571e+01  3.8884e-03  3.2760e-03  1.4137e-03  0:07:19 1417

  iter  continuity  x-velocity  y-velocity  z-velocity      energy           k       omega     time/iter
   584  3.8720e-03  1.4323e-03  1.0344e-02  1.3510e+01  3.8683e-03  3.2761e-03  1.4230e-03  0:05:51 1416
   585  3.8496e-03  1.4359e-03  1.0365e-02  1.3440e+01  3.8458e-03  3.2761e-03  1.4298e-03  0:04:40 1415
   586  3.8262e-03  1.4390e-03  1.0384e-02  1.3315e+01  3.8222e-03  3.2723e-03  1.4359e-03  0:08:27 1414
   587  3.8015e-03  1.4412e-03  1.0400e-02  1.3142e+01  3.7974e-03  3.2698e-03  1.4427e-03  0:06:45 1413
   588  3.7685e-03  1.4425e-03  1.0414e-02  1.2969e+01  3.7643e-03  3.2685e-03  1.4481e-03  0:05:24 1412
   589  3.7295e-03  1.4429e-03  1.0426e-02  1.2785e+01  3.7252e-03  3.2677e-03  1.4546e-03  0:09:01 1411
   590  3.6879e-03  1.4426e-03  1.0435e-02  1.2598e+01  3.6835e-03  3.2682e-03  1.4621e-03  0:07:13 1410
   591  3.6462e-03  1.4413e-03  1.0442e-02  1.2397e+01  3.6417e-03  3.2699e-03  1.4688e-03  0:05:46 1409
   592  3.6067e-03  1.4396e-03  1.0446e-02  1.2183e+01  3.6021e-03  3.2711e-03  1.4746e-03  0:09:18 1408
   593  3.5710e-03  1.4376e-03  1.0450e-02  1.1992e+01  3.5663e-03  3.2722e-03  1.4813e-03  0:07:26 1407
   594  3.5394e-03  1.4357e-03  1.0453e-02  1.1833e+01  3.5346e-03  3.2741e-03  1.4871e-03  0:05:57 1406

  iter  continuity  x-velocity  y-velocity  z-velocity      energy           k       omega     time/iter
   595  3.5114e-03  1.4337e-03  1.0455e-02  1.1679e+01  3.5066e-03  3.2779e-03  1.4913e-03  0:09:26 1405
   596  3.4859e-03  1.4318e-03  1.0456e-02  1.1496e+01  3.4810e-03  3.2817e-03  1.4988e-03  0:07:33 1404
   597  3.4617e-03  1.4301e-03  1.0453e-02  1.1336e+01  3.4568e-03  3.2852e-03  1.5102e-03  0:06:02 1403
   598  3.4383e-03  1.4286e-03  1.0447e-02  1.1154e+01  3.4334e-03  3.2921e-03  1.5104e-03  0:04:49 1402
   599  3.4161e-03  1.4270e-03  1.0443e-02  1.0944e+01  3.4112e-03  3.3013e-03  1.5107e-03  0:08:31 1401
   600  3.3960e-03  1.4258e-03  1.0438e-02  1.0698e+01  3.3910e-03  3.3100e-03  1.5125e-03  0:06:49 1400
   601  3.3779e-03  1.4246e-03  1.0430e-02  1.0448e+01  3.3729e-03  3.3188e-03  1.5159e-03  0:05:27 1399
   602  3.3524e-03  1.4236e-03  1.0421e-02  1.0202e+01  3.3474e-03  3.3268e-03  1.5205e-03  0:09:01 1398
   603  3.3209e-03  1.4227e-03  1.0410e-02  9.9664e+00  3.3158e-03  3.3333e-03  1.5237e-03  0:07:12 1397
   604  3.2862e-03  1.4218e-03  1.0398e-02  9.7419e+00  3.2811e-03  3.3385e-03  1.5285e-03  0:05:46 1396
   605  3.2521e-03  1.4208e-03  1.0385e-02  9.5099e+00  3.2469e-03  3.3442e-03  1.5314e-03  0:09:15 1395

  iter  continuity  x-velocity  y-velocity  z-velocity      energy           k       omega     time/iter
   606  3.2191e-03  1.4198e-03  1.0372e-02  9.2709e+00  3.2138e-03  3.3499e-03  1.5363e-03  0:07:24 1394
   607  3.1854e-03  1.4187e-03  1.0358e-02  9.0412e+00  3.1800e-03  3.3571e-03  1.5402e-03  0:05:55 1393
   608  3.1519e-03  1.4181e-03  1.0344e-02  8.8357e+00  3.1465e-03  3.3644e-03  1.5420e-03  0:04:44 1392
   609  3.1201e-03  1.4177e-03  1.0330e-02  8.6570e+00  3.1147e-03  3.3706e-03  1.5446e-03  0:08:25 1391
   610  3.0845e-03  1.4177e-03  1.0317e-02  8.5785e+00  3.0790e-03  3.3764e-03  1.5468e-03  0:06:44 1390
   611  3.0473e-03  1.4183e-03  1.0304e-02  8.8278e+00  3.0418e-03  3.3819e-03  1.5504e-03  0:05:23 1389
   612  3.0107e-03  1.4193e-03  1.0292e-02  9.3173e+00  3.0053e-03  3.3856e-03  1.5538e-03  0:08:56 1388
   613  2.9698e-03  1.4207e-03  1.0280e-02  9.6212e+00  2.9643e-03  3.3898e-03  1.5578e-03  0:07:08 1387
   614  2.9227e-03  1.4227e-03  1.0271e-02  9.5485e+00  2.9173e-03  3.3934e-03  1.5620e-03  0:05:42 1386
   615  2.8697e-03  1.4247e-03  1.0263e-02  9.2743e+00  2.8643e-03  3.3962e-03  1.5656e-03  0:09:11 1385
   616  2.8053e-03  1.4269e-03  1.0259e-02  8.9118e+00  2.8000e-03  3.3984e-03  1.5699e-03  0:07:20 1384

  iter  continuity  x-velocity  y-velocity  z-velocity      energy           k       omega     time/iter
   617  2.7384e-03  1.4293e-03  1.0255e-02  8.5813e+00  2.7332e-03  3.4018e-03  1.5767e-03  0:05:52 1383
   618  2.6762e-03  1.4318e-03  1.0250e-02  8.2881e+00  2.6710e-03  3.4080e-03  1.5838e-03  0:04:41 1382
   619  2.6140e-03  1.4343e-03  1.0242e-02  8.0813e+00  2.6089e-03  3.4159e-03  1.5897e-03  0:08:21 1381
   620  2.5530e-03  1.4366e-03  1.0232e-02  7.9205e+00  2.5480e-03  3.4245e-03  1.5966e-03  0:06:41 1380
   621  2.4933e-03  1.4386e-03  1.0220e-02  7.8154e+00  2.4884e-03  3.4317e-03  1.6036e-03  0:05:20 1379
   622  2.4332e-03  1.4405e-03  1.0205e-02  7.7813e+00  2.4283e-03  3.4392e-03  1.6139e-03  0:08:52 1378
   623  2.3737e-03  1.4422e-03  1.0187e-02  7.8299e+00  2.3689e-03  3.4470e-03  1.6240e-03  0:07:05 1377
   624  2.3159e-03  1.4440e-03  1.0167e-02  7.9657e+00  2.3113e-03  3.4535e-03  1.6338e-03  0:05:40 1376
   625  2.2618e-03  1.4459e-03  1.0145e-02  8.0980e+00  2.2572e-03  3.4637e-03  1.6418e-03  0:09:07 1375
   626  2.2123e-03  1.4477e-03  1.0119e-02  8.2530e+00  2.2079e-03  3.4724e-03  1.6486e-03  0:07:17 1374
[...]
  1845  2.8768e-03  1.8120e-03  9.3963e-03  8.5593e-01  2.8739e-03  2.5616e-03  1.4899e-03  0:00:42  155
  1846  2.9882e-03  1.8052e-03  9.4014e-03  8.6123e-01  2.9854e-03  2.5457e-03  1.4892e-03  0:00:33  154
  1847  3.1008e-03  1.7986e-03  9.4081e-03  8.6549e-01  3.0980e-03  2.5348e-03  1.4881e-03  0:00:27  153
  1848  3.2129e-03  1.7924e-03  9.4170e-03  8.6825e-01  3.2101e-03  2.5234e-03  1.4869e-03  0:00:21  152

  iter  continuity  x-velocity  y-velocity  z-velocity      energy           k       omega     time/iter
  1849  3.3205e-03  1.7871e-03  9.4282e-03  8.7624e-01  3.3178e-03  2.5106e-03  1.4893e-03  0:00:17  151
  1850  3.4342e-03  1.7815e-03  9.4423e-03  8.8200e-01  3.4314e-03  2.5010e-03  1.4923e-03  0:00:13  150
  1851  3.5496e-03  1.7765e-03  9.4586e-03  9.0536e-01  3.5469e-03  2.4926e-03  1.4933e-03  0:00:40  149
  1852  3.6644e-03  1.7710e-03  9.4769e-03  9.2935e-01  3.6616e-03  2.4836e-03  1.4951e-03  0:00:32  148
  1853  3.7768e-03  1.7648e-03  9.4976e-03  9.4544e-01  3.7741e-03  2.4743e-03  1.5029e-03  0:00:26  147
  1854  3.8820e-03  1.7579e-03  9.5203e-03  9.6369e-01  3.8792e-03  2.4680e-03  1.5070e-03  0:00:20  146
  1855  3.9816e-03  1.7515e-03  9.5444e-03  9.9298e-01  3.9789e-03  2.4609e-03  1.5090e-03  0:00:16  145
  1856  4.0534e-03  1.7452e-03  9.5696e-03  1.0222e+00  4.0505e-03  2.4538e-03  1.5143e-03  0:00:42  144
  1857  4.1368e-03  1.7393e-03  9.5968e-03  1.0394e+00  4.1339e-03  2.4469e-03  1.5195e-03  0:00:33  143
  1858  4.2263e-03  1.7338e-03  9.6261e-03  1.0557e+00  4.2234e-03  2.4408e-03  1.5235e-03  0:00:26  142
  1859  4.3082e-03  1.7282e-03  9.6566e-03  1.0646e+00  4.3053e-03  2.4352e-03  1.5264e-03  0:00:21  141

  iter  continuity  x-velocity  y-velocity  z-velocity      energy           k       omega     time/iter
  1860  4.3816e-03  1.7228e-03  9.6879e-03  1.0828e+00  4.3786e-03  2.4296e-03  1.5326e-03  0:00:17  140
  1861  4.4485e-03  1.7175e-03  9.7193e-03  1.1069e+00  4.4455e-03  2.4251e-03  1.5386e-03  0:00:13  139
  1862  4.4934e-03  1.7126e-03  9.7507e-03  1.1403e+00  4.4904e-03  2.4225e-03  1.5418e-03  0:00:38  138
  1863  4.5258e-03  1.7075e-03  9.7818e-03  1.1704e+00  4.5227e-03  2.4215e-03  1.5424e-03  0:00:30  137
  1864  4.5536e-03  1.7010e-03  9.8124e-03  1.2119e+00  4.5504e-03  2.4202e-03  1.5471e-03  0:00:24  136
  1865  4.5697e-03  1.6949e-03  9.8412e-03  1.2562e+00  4.5664e-03  2.4225e-03  1.5530e-03  0:00:19  135
  1866  4.5770e-03  1.6892e-03  9.8693e-03  1.2914e+00  4.5736e-03  2.4250e-03  1.5564e-03  0:00:15  134
  1867  4.5647e-03  1.6836e-03  9.8978e-03  1.3327e+00  4.5612e-03  2.4277e-03  1.5599e-03  0:00:39  133
  1868  4.5557e-03  1.6779e-03  9.9243e-03  1.3738e+00  4.5521e-03  2.4318e-03  1.5652e-03  0:00:31  132
  1869  4.5505e-03  1.6727e-03  9.9495e-03  1.4062e+00  4.5468e-03  2.4382e-03  1.5731e-03  0:00:24  131
  1870  4.5444e-03  1.6683e-03  9.9739e-03  1.4610e+00  4.5406e-03  2.4435e-03  1.5768e-03  0:00:19  130

  iter  continuity  x-velocity  y-velocity  z-velocity      energy           k       omega     time/iter
  1871  4.5351e-03  1.6643e-03  9.9970e-03  1.5049e+00  4.5313e-03  2.4488e-03  1.5794e-03  0:00:15  129
  1872  4.5256e-03  1.6597e-03  1.0019e-02  1.5502e+00  4.5217e-03  2.4560e-03  1.5865e-03  0:00:12  128
  1873  4.5154e-03  1.6550e-03  1.0039e-02  1.5934e+00  4.5115e-03  2.4617e-03  1.5917e-03  0:00:10  127
  1874  4.5032e-03  1.6507e-03  1.0059e-02  1.6273e+00  4.4994e-03  2.4672e-03  1.5963e-03  0:00:33  126
  1875  4.4872e-03  1.6465e-03  1.0079e-02  1.6547e+00  4.4833e-03  2.4779e-03  1.6023e-03  0:00:26  125
  1876  4.4523e-03  1.6426e-03  1.0098e-02  1.6791e+00  4.4484e-03  2.4867e-03  1.6089e-03  0:00:21  124
  1877  4.4164e-03  1.6393e-03  1.0118e-02  1.7454e+00  4.4125e-03  2.4919e-03  1.6122e-03  0:00:16  123
  1878  4.3847e-03  1.6367e-03  1.0139e-02  1.7965e+00  4.3808e-03  2.4969e-03  1.6170e-03  0:00:13  122
  1879  4.3536e-03  1.6343e-03  1.0160e-02  1.8316e+00  4.3497e-03  2.5018e-03  1.6242e-03  0:00:35  121
  1880  4.3214e-03  1.6330e-03  1.0181e-02  1.8604e+00  4.3175e-03  2.5045e-03  1.6270e-03  0:00:27  120
  1881  4.2855e-03  1.6325e-03  1.0203e-02  1.8857e+00  4.2816e-03  2.5077e-03  1.6274e-03  0:00:22  119

  iter  continuity  x-velocity  y-velocity  z-velocity      energy           k       omega     time/iter
  1882  4.2472e-03  1.6326e-03  1.0224e-02  1.9178e+00  4.2434e-03  2.5112e-03  1.6308e-03  0:00:17  118
  1883  4.2069e-03  1.6330e-03  1.0245e-02  1.9450e+00  4.2031e-03  2.5131e-03  1.6345e-03  0:00:14  117
  1884  4.1635e-03  1.6341e-03  1.0264e-02  1.9639e+00  4.1597e-03  2.5107e-03  1.6375e-03  0:00:11  116
  1885  4.1169e-03  1.6357e-03  1.0285e-02  1.9802e+00  4.1132e-03  2.5124e-03  1.6408e-03  0:00:32  115
  1886  4.0677e-03  1.6373e-03  1.0305e-02  2.0001e+00  4.0640e-03  2.5125e-03  1.6449e-03  0:00:25  114
  1887  4.0173e-03  1.6386e-03  1.0324e-02  2.0216e+00  4.0136e-03  2.5109e-03  1.6481e-03  0:00:20  113
  1888  3.9676e-03  1.6402e-03  1.0344e-02  2.0415e+00  3.9639e-03  2.5110e-03  1.6512e-03  0:00:16  112
  1889  3.9200e-03  1.6426e-03  1.0364e-02  2.0696e+00  3.9163e-03  2.5102e-03  1.6571e-03  0:00:12  111
  1890  3.8763e-03  1.6453e-03  1.0382e-02  2.1030e+00  3.8727e-03  2.5088e-03  1.6601e-03  0:00:32  110
  1891  3.8369e-03  1.6485e-03  1.0399e-02  2.1420e+00  3.8334e-03  2.5086e-03  1.6634e-03  0:00:25  109
  1892  3.8024e-03  1.6523e-03  1.0416e-02  2.1858e+00  3.7989e-03  2.5062e-03  1.6693e-03  0:00:20  108

  iter  continuity  x-velocity  y-velocity  z-velocity      energy           k       omega     time/iter
  1893  3.7729e-03  1.6563e-03  1.0431e-02  2.2305e+00  3.7694e-03  2.5023e-03  1.6725e-03  0:00:16  107
  1894  3.7483e-03  1.6603e-03  1.0445e-02  2.2682e+00  3.7449e-03  2.5002e-03  1.6744e-03  0:00:13  106
  1895  3.7196e-03  1.6644e-03  1.0458e-02  2.2932e+00  3.7162e-03  2.4987e-03  1.6811e-03  0:00:10  105
  1896  3.6825e-03  1.6686e-03  1.0471e-02  2.3152e+00  3.6790e-03  2.4963e-03  1.6855e-03  0:00:29  104
  1897  3.6425e-03  1.6718e-03  1.0482e-02  2.3185e+00  3.6390e-03  2.4937e-03  1.6878e-03  0:00:23  103
  1898  3.6005e-03  1.6745e-03  1.0491e-02  2.3050e+00  3.5969e-03  2.4908e-03  1.6955e-03  0:00:18  102
  1899  3.5578e-03  1.6767e-03  1.0499e-02  2.2744e+00  3.5540e-03  2.4875e-03  1.7022e-03  0:00:14  101
  1900  3.5142e-03  1.6788e-03  1.0507e-02  2.2299e+00  3.5104e-03  2.4834e-03  1.7028e-03  0:00:11  100
  1901  3.4695e-03  1.6805e-03  1.0513e-02  2.1806e+00  3.4655e-03  2.4816e-03  1.7074e-03  0:00:09   99
  1902  3.4234e-03  1.6823e-03  1.0520e-02  2.1257e+00  3.4194e-03  2.4799e-03  1.7120e-03  0:00:27   98
  1903  3.3754e-03  1.6843e-03  1.0527e-02  2.0651e+00  3.3712e-03  2.4785e-03  1.7151e-03  0:00:21   97

  iter  continuity  x-velocity  y-velocity  z-velocity      energy           k       omega     time/iter
  1904  3.3269e-03  1.6861e-03  1.0534e-02  1.9918e+00  3.3227e-03  2.4805e-03  1.7221e-03  0:00:17   96
  1905  3.2787e-03  1.6885e-03  1.0542e-02  1.9029e+00  3.2743e-03  2.4811e-03  1.7285e-03  0:00:13   95
  1906  3.2310e-03  1.6913e-03  1.0550e-02  1.8154e+00  3.2266e-03  2.4845e-03  1.7328e-03  0:00:10   94
  1907  3.1843e-03  1.6939e-03  1.0561e-02  1.7569e+00  3.1799e-03  2.4883e-03  1.7407e-03  0:00:08   93
  1908  3.1387e-03  1.6973e-03  1.0572e-02  1.7205e+00  3.1342e-03  2.4939e-03  1.7470e-03  0:00:25   92
  1909  3.0941e-03  1.7017e-03  1.0584e-02  1.7025e+00  3.0895e-03  2.4997e-03  1.7511e-03  0:00:20   91
  1910  3.0515e-03  1.7071e-03  1.0596e-02  1.7020e+00  3.0469e-03  2.5063e-03  1.7576e-03  0:00:16   90
  1911  3.0124e-03  1.7132e-03  1.0609e-02  1.7232e+00  3.0078e-03  2.5145e-03  1.7645e-03  0:00:12   89
  1912  2.9768e-03  1.7201e-03  1.0623e-02  1.7720e+00  2.9721e-03  2.5236e-03  1.7697e-03  0:00:10   88
  1913  2.9381e-03  1.7274e-03  1.0637e-02  1.8626e+00  2.9333e-03  2.5324e-03  1.7748e-03  0:00:08   87
  1914  2.9001e-03  1.7349e-03  1.0650e-02  1.9994e+00  2.8952e-03  2.5439e-03  1.7782e-03  0:00:23   86

  iter  continuity  x-velocity  y-velocity  z-velocity      energy           k       omega     time/iter
  1915  2.8689e-03  1.7427e-03  1.0665e-02  2.1914e+00  2.8638e-03  2.5574e-03  1.7826e-03  0:00:18   85
  1916  2.8354e-03  1.7509e-03  1.0680e-02  2.4469e+00  2.8301e-03  2.5692e-03  1.7876e-03  0:00:15   84
  1917  2.7969e-03  1.7595e-03  1.0695e-02  2.7763e+00  2.7915e-03  2.5816e-03  1.7901e-03  0:00:12   83
  1918  2.7574e-03  1.7681e-03  1.0711e-02  3.1758e+00  2.7518e-03  2.5953e-03  1.7945e-03  0:00:09   82
  1919  2.7201e-03  1.7770e-03  1.0727e-02  3.6383e+00  2.7143e-03  2.6069e-03  1.7999e-03  0:00:07   81
  1920  2.6870e-03  1.7866e-03  1.0743e-02  4.1520e+00  2.6810e-03  2.6194e-03  1.8023e-03  0:00:22   80
  1921  2.6576e-03  1.7960e-03  1.0759e-02  4.6918e+00  2.6515e-03  2.6342e-03  1.8059e-03  0:00:17   79
  1922  2.6318e-03  1.8058e-03  1.0776e-02  5.2267e+00  2.6255e-03  2.6467e-03  1.8086e-03  0:00:14   78
  1923  2.6097e-03  1.8160e-03  1.0791e-02  5.7312e+00  2.6033e-03  2.6579e-03  1.8096e-03  0:00:11   77
  1924  2.5922e-03  1.8264e-03  1.0807e-02  6.1790e+00  2.5856e-03  2.6705e-03  1.8123e-03  0:00:08   76
  1925  2.5804e-03  1.8370e-03  1.0823e-02  6.5497e+00  2.5737e-03  2.6813e-03  1.8144e-03  0:00:22   75

  iter  continuity  x-velocity  y-velocity  z-velocity      energy           k       omega     time/iter
  1926  2.5696e-03  1.8481e-03  1.0838e-02  6.8358e+00  2.5629e-03  2.6922e-03  1.8148e-03  0:00:17   74
  1927  2.5522e-03  1.8593e-03  1.0854e-02  7.0440e+00  2.5454e-03  2.7035e-03  1.8169e-03  0:00:13   73
  1928  2.5344e-03  1.8706e-03  1.0871e-02  7.1915e+00  2.5274e-03  2.7128e-03  1.8158e-03  0:00:11   72
  1929  2.5174e-03  1.8827e-03  1.0887e-02  7.3011e+00  2.5104e-03  2.7216e-03  1.8131e-03  0:00:08   71
  1930  2.5031e-03  1.8949e-03  1.0903e-02  7.4008e+00  2.4959e-03  2.7306e-03  1.8121e-03  0:00:07   70
  1931  2.4910e-03  1.9074e-03  1.0920e-02  7.5194e+00  2.4837e-03  2.7405e-03  1.8127e-03  0:00:19   69
  1932  2.4808e-03  1.9200e-03  1.0934e-02  7.6775e+00  2.4734e-03  2.7483e-03  1.8122e-03  0:00:15   68
  1933  2.4763e-03  1.9328e-03  1.0945e-02  7.8895e+00  2.4688e-03  2.7554e-03  1.8115e-03  0:00:12   67
  1934  2.4694e-03  1.9458e-03  1.0954e-02  8.1587e+00  2.4618e-03  2.7650e-03  1.8155e-03  0:00:09   66
  1935  2.4605e-03  1.9591e-03  1.0967e-02  8.4859e+00  2.4528e-03  2.7720e-03  1.8132e-03  0:00:07   65
  1936  2.4500e-03  1.9726e-03  1.0982e-02  8.8769e+00  2.4422e-03  2.7793e-03  1.8128e-03  0:00:06   64

  iter  continuity  x-velocity  y-velocity  z-velocity      energy           k       omega     time/iter
  1937  2.4389e-03  1.9858e-03  1.0992e-02  9.3330e+00  2.4311e-03  2.7862e-03  1.8126e-03  0:00:17   63
  1938  2.4293e-03  1.9989e-03  1.1000e-02  9.8956e+00  2.4215e-03  2.7932e-03  1.8204e-03  0:00:14   62
  1939  2.4209e-03  2.0122e-03  1.1013e-02  1.0530e+01  2.4130e-03  2.8003e-03  1.8177e-03  0:00:11   61
  1940  2.4132e-03  2.0254e-03  1.1026e-02  1.1193e+01  2.4053e-03  2.8083e-03  1.8167e-03  0:00:08   60
  1941  2.4018e-03  2.0387e-03  1.1035e-02  1.1898e+01  2.3939e-03  2.8156e-03  1.8179e-03  0:00:07   59
  1942  2.3940e-03  2.0531e-03  1.1040e-02  1.2395e+01  2.3860e-03  2.8236e-03  1.8165e-03  0:00:05   58
  1943  2.3882e-03  2.0666e-03  1.1043e-02  1.2724e+01  2.3803e-03  2.8318e-03  1.8151e-03  0:00:15   57
  1944  2.3608e-03  2.0800e-03  1.1045e-02  1.3392e+01  2.3528e-03  2.8409e-03  1.8184e-03  0:00:12   56
  1945  2.3259e-03  2.0932e-03  1.1047e-02  1.4141e+01  2.3178e-03  2.8500e-03  1.8205e-03  0:00:10   55
  1946  2.2999e-03  2.1077e-03  1.1049e-02  1.4668e+01  2.2917e-03  2.8594e-03  1.8188e-03  0:00:08   54
  1947  2.2729e-03  2.1220e-03  1.1047e-02  1.4941e+01  2.2647e-03  2.8707e-03  1.8214e-03  0:00:06   53

  iter  continuity  x-velocity  y-velocity  z-velocity      energy           k       omega     time/iter
  1948  2.2479e-03  2.1357e-03  1.1044e-02  1.5101e+01  2.2395e-03  2.8820e-03  1.8213e-03  0:00:05   52
  1949  2.2264e-03  2.1484e-03  1.1040e-02  1.5257e+01  2.2180e-03  2.8951e-03  1.8148e-03  0:00:14   51
  1950  2.2068e-03  2.1598e-03  1.1034e-02  1.5447e+01  2.1983e-03  2.9087e-03  1.8158e-03  0:00:11   50
  1951  2.1873e-03  2.1704e-03  1.1028e-02  1.5664e+01  2.1787e-03  2.9251e-03  1.8138e-03  0:00:09   49
  1952  2.1684e-03  2.1794e-03  1.1023e-02  1.5877e+01  2.1599e-03  2.9431e-03  1.8060e-03  0:00:07   48
  1953  2.1506e-03  2.1870e-03  1.1018e-02  1.6024e+01  2.1420e-03  2.9615e-03  1.8042e-03  0:00:05   47
  1954  2.1346e-03  2.1925e-03  1.1011e-02  1.6126e+01  2.1260e-03  2.9824e-03  1.7989e-03  0:00:04   46
  1955  2.1208e-03  2.1963e-03  1.1004e-02  1.6243e+01  2.1122e-03  3.0047e-03  1.7930e-03  0:00:12   45
  1956  2.1090e-03  2.1990e-03  1.0994e-02  1.6351e+01  2.1003e-03  3.0262e-03  1.7846e-03  0:00:10   44
  1957  2.0986e-03  2.2023e-03  1.0982e-02  1.6424e+01  2.0899e-03  3.0436e-03  1.7755e-03  0:00:07   43
  1958  2.0890e-03  2.2073e-03  1.0968e-02  1.6431e+01  2.0802e-03  3.0618e-03  1.7642e-03  0:00:06   42

  iter  continuity  x-velocity  y-velocity  z-velocity      energy           k       omega     time/iter
  1959  2.0787e-03  2.2133e-03  1.0955e-02  1.6348e+01  2.0699e-03  3.0805e-03  1.7531e-03  0:00:05   41
  1960  2.0683e-03  2.2197e-03  1.0941e-02  1.6142e+01  2.0595e-03  3.0992e-03  1.7410e-03  0:00:12   40
  1961  2.0582e-03  2.2266e-03  1.0927e-02  1.5800e+01  2.0494e-03  3.1184e-03  1.7309e-03  0:00:09   39
  1962  2.0480e-03  2.2338e-03  1.0912e-02  1.5341e+01  2.0392e-03  3.1381e-03  1.7215e-03  0:00:07   38
  1963  2.0377e-03  2.2408e-03  1.0897e-02  1.4787e+01  2.0289e-03  3.1566e-03  1.7144e-03  0:00:05   37
  1964  2.0270e-03  2.2479e-03  1.0880e-02  1.4161e+01  2.0184e-03  3.1729e-03  1.7046e-03  0:00:04   36
  1965  2.0162e-03  2.2559e-03  1.0861e-02  1.3448e+01  2.0076e-03  3.1885e-03  1.6996e-03  0:00:03   35
  1966  2.0050e-03  2.2642e-03  1.0839e-02  1.2658e+01  1.9965e-03  3.2032e-03  1.6972e-03  0:00:03   34
  1967  1.9933e-03  2.2724e-03  1.0814e-02  1.1836e+01  1.9850e-03  3.2160e-03  1.6982e-03  0:00:09   33
  1968  1.9801e-03  2.2806e-03  1.0786e-02  1.1017e+01  1.9719e-03  3.2274e-03  1.7011e-03  0:00:07   32
  1969  1.9669e-03  2.2896e-03  1.0751e-02  1.0229e+01  1.9588e-03  3.2404e-03  1.7052e-03  0:00:05   31

  iter  continuity  x-velocity  y-velocity  z-velocity      energy           k       omega     time/iter
  1970  1.9548e-03  2.2989e-03  1.0710e-02  9.5194e+00  1.9468e-03  3.2528e-03  1.7107e-03  0:00:04   30
  1971  1.9445e-03  2.3086e-03  1.0663e-02  8.9035e+00  1.9367e-03  3.2644e-03  1.7103e-03  0:00:03   29
  1972  1.9350e-03  2.3187e-03  1.0609e-02  8.4512e+00  1.9273e-03  3.2758e-03  1.7148e-03  0:00:02   28
  1973  1.9275e-03  2.3295e-03  1.0551e-02  8.1477e+00  1.9199e-03  3.2850e-03  1.7221e-03  0:00:07   27
  1974  1.9216e-03  2.3402e-03  1.0489e-02  7.9973e+00  1.9141e-03  3.2918e-03  1.7292e-03  0:00:06   26
  1975  1.9170e-03  2.3503e-03  1.0422e-02  7.9965e+00  1.9096e-03  3.2973e-03  1.7375e-03  0:00:04   25
  1976  1.9155e-03  2.3602e-03  1.0353e-02  8.1285e+00  1.9082e-03  3.3024e-03  1.7464e-03  0:00:03   24
  1977  1.9173e-03  2.3697e-03  1.0279e-02  8.4104e+00  1.9101e-03  3.3062e-03  1.7546e-03  0:00:03   23
  1978  1.9219e-03  2.3779e-03  1.0202e-02  8.8059e+00  1.9148e-03  3.3092e-03  1.7656e-03  0:00:02   22
  1979  1.9295e-03  2.3853e-03  1.0123e-02  9.3113e+00  1.9225e-03  3.3107e-03  1.7726e-03  0:00:06   21
  1980  1.9410e-03  2.3919e-03  1.0043e-02  9.9184e+00  1.9340e-03  3.3111e-03  1.7833e-03  0:00:04   20

  iter  continuity  x-velocity  y-velocity  z-velocity      energy           k       omega     time/iter
  1981  1.9558e-03  2.3977e-03  9.9618e-03  1.0588e+01  1.9489e-03  3.3101e-03  1.7943e-03  0:00:03   19
  1982  1.9721e-03  2.4028e-03  9.8825e-03  1.1261e+01  1.9652e-03  3.3086e-03  1.8070e-03  0:00:02   18
  1983  1.9893e-03  2.4068e-03  9.8049e-03  1.1954e+01  1.9824e-03  3.3079e-03  1.8186e-03  0:00:02   17
  1984  2.0074e-03  2.4100e-03  9.7305e-03  1.2645e+01  2.0005e-03  3.3094e-03  1.8242e-03  0:00:05   16
  1985  2.0262e-03  2.4131e-03  9.6608e-03  1.3320e+01  2.0192e-03  3.3119e-03  1.8316e-03  0:00:03   15
  1986  2.0445e-03  2.4165e-03  9.5970e-03  1.3961e+01  2.0374e-03  3.3168e-03  1.8393e-03  0:00:03   14
  1987  2.0615e-03  2.4206e-03  9.5406e-03  1.4568e+01  2.0544e-03  3.3230e-03  1.8469e-03  0:00:02   13
  1988  2.0769e-03  2.4255e-03  9.4897e-03  1.5119e+01  2.0697e-03  3.3204e-03  1.8539e-03  0:00:01   12
  1989  2.0894e-03  2.4314e-03  9.4454e-03  1.5607e+01  2.0823e-03  3.3208e-03  1.8590e-03  0:00:01   11
  1990  2.1011e-03  2.4375e-03  9.4059e-03  1.6038e+01  2.0940e-03  3.3260e-03  1.8684e-03  0:00:03   10
  1991  2.1129e-03  2.4442e-03  9.3702e-03  1.6414e+01  2.1058e-03  3.3351e-03  1.8778e-03  0:00:02    9

  iter  continuity  x-velocity  y-velocity  z-velocity      energy           k       omega     time/iter
  1992  2.1236e-03  2.4511e-03  9.3373e-03  1.6727e+01  2.1165e-03  3.3459e-03  1.8854e-03  0:00:01    8
  1993  2.1331e-03  2.4587e-03  9.3067e-03  1.6971e+01  2.1260e-03  3.3590e-03  1.8942e-03  0:00:01    7
  1994  2.1418e-03  2.4674e-03  9.2781e-03  1.7133e+01  2.1347e-03  3.3732e-03  1.9031e-03  0:00:01    6
  1995  2.1498e-03  2.4763e-03  9.2489e-03  1.7228e+01  2.1427e-03  3.3893e-03  1.9159e-03  0:00:01    5
  1996  2.1569e-03  2.4857e-03  9.2180e-03  1.7266e+01  2.1498e-03  3.4047e-03  1.9282e-03  0:00:01    4
  1997  2.1634e-03  2.4955e-03  9.1855e-03  1.7249e+01  2.1562e-03  3.4178e-03  1.9424e-03  0:00:01    3
  1998  2.1691e-03  2.5056e-03  9.1518e-03  1.7178e+01  2.1619e-03  3.4312e-03  1.9540e-03  0:00:00    2
  1999  2.1747e-03  2.5156e-03  9.1178e-03  1.7053e+01  2.1674e-03  3.4467e-03  1.9655e-03  0:00:00    1
  2000  2.1810e-03  2.5248e-03  9.0829e-03  1.6866e+01  2.1736e-03  3.4610e-03  1.9744e-03  0:00:00    0

> 
adjoint/                parallel/               server/
define/                 parametric-study/       solve/
display/                plot/                   surface/
exit                    preferences/            turbo-workflow/
file/                   print-license-usage     views/
mesh/                   report/

> /file/write-case-data project1
Fast-loading "C:\PROGRA~1\ANSYSI~1\v231\fluent\fluent23.1.0\\addons\afd\lib\hdfio.bin"
Done.

Writing to Engs-30669:"C:\Users\kebl7595\Desktop\CFD\Runs\Flap\24 degree\project1.cas.h5" in NODE0 mode and compression level 1 ...
       24072 cells,     1 zone  ...
       80918 faces,     7 zones ...
       33000 nodes,     1 zone  ...
  Done.
Done.

Writing to Engs-30669:"C:\Users\kebl7595\Desktop\CFD\Runs\Flap\24 degree\project1.dat.h5" in NODE0 mode and compression level 1 ...
  Writing results.
Done.

> /file/export/ascii "./surface.dat" wing () no pressure mach-number quit no

Writing "./surface.dat"...

Writing information to ascii file ...
Done.


> /report/forces/wall-forces y -0.40674 -0.91355 0 y "Lift"

> /report/forces/wall-forces y 0.91355 -0.40674 0 y "Drag"

> ;/exit

> (cx-gui-do cx-set-list-tree-selections "NavigationPane*Frame2*Table1*List_Tree2" (list "Results|Graphics|Pathlines"))
(cx-gui-do cx-set-list-tree-selections "NavigationPane*Frame2*Table1*List_Tree2" (list "Results|Graphics|Pathlines"))
(cx-gui-do cx-activate-item "NavigationPane*Frame2*Table1*List_Tree2")
(cx-gui-do cx-set-list-tree-selections "NavigationPane*Frame2*Table1*List_Tree2" (list "Results|Graphics|Pathlines"))
(cx-gui-do cx-set-list-selections "Pathlines*Frame4*List3(Release from Surfaces)" '( 3))
(cx-gui-do cx-activate-item "Pathlines*Frame4*List3(Release from Surfaces)")
(cx-gui-do cx-activate-item "Pathlines*PanelButtons*PushButton1(OK)")

number tracked = 8024, escaped = 5899, incomplete = 2125
(cx-gui-do cx-activate-item "Pathlines*PanelButtons*PushButton2(Cancel)")
/exit y

Posting ANSYS Product Improvement Program performance data 
Done.
Auto-Transcript Stop Time:  10:26:15, 22 May 2024 GMT Daylight Time 
Total Transcript Time: 16 Minute 11 Second.
