Auto-Transcript Start Time:  15:01:35, 20 May 2024 GMT Daylight Time 
Current Directory: "C:\Users\kebl7595\Desktop\CFD\Runs\Actual Data\21 degree"

              Welcome to ANSYS Fluent 2023 R1

              Copyright 1987-2023 ANSYS, Inc. All Rights Reserved.
              Unauthorized use, distribution or duplication is prohibited.
              This product is subject to U.S. laws governing export and re-export.
              For full Legal Notice, see documentation.

Build Time: Nov 28 2022 09:52:02 EST  Build Id: 10208  
 
Connected License Server List:	1055@ansyslic.eng.ox.ac.uk

*********************************************
Info: Your license enables 4-way parallel execution.
For faster simulations, please start the application with the appropriate parallel options.
*********************************************


     --------------------------------------------------------------
     This is an academic version of ANSYS FLUENT. Usage of this product
     license is limited to the terms and conditions specified in your ANSYS
     license form, additional terms section.
     --------------------------------------------------------------
Host spawning Node 0 on machine "Engs-30669" (win64).

------------------------------------------------------------------------------------
ID    Hostname    Core  O.S.         PID    Vendor                                 
------------------------------------------------------------------------------------
n0    Engs-30669  1/32  Windows-x64  16764  13th Gen Intel(R) Core(TM) i9-13900    
host  Engs-30669        Windows-x64  23940  13th Gen Intel(R) Core(TM) i9-13900    

MPI Option Selected: intel
------------------------------------------------------------------------------------

Cleanup script file is C:\\Users\\kebl7595\\Desktop\\CFD\\Runs\\Actual Data\\21 degree\\cleanup-fluent-Engs-30669-23940.bat
QA Service Message :
QA Services Agreement Enabled. This application is included in the scope of an ANSYS QA Services Agreement.
Posting ANSYS Product Improvement Program startup data
Done.

Reading journal file C:/Users/kebl7595/Desktop/CFD/Runs/Actual Data/21 degree/project1.jou...

> /file/set-batch-options no no no 

> 
define/                 parametric-study/       solve/
display/                plot/                   surface/
exit                    preferences/            switch-to-meshing-mode
file/                   print-license-usage     turbo-workflow/
mesh/                   report/                 views/
parallel/               server/

> /file/import/cgns/mesh  "./project1.cgns"
Engs-30669 has other FLUENT parallel processes running.                       Process affinity not being set.

Importing "./project1.cgns"

Opening library "C:\\PROGRA~1\\ANSYSI~1\\v231\\fluent\\fluent23.1.0\\vki\\win64\\devtools4.4.6.dll"... done.

Read    17864 nodes
   12996 hexahedral cells, zone  1
    9462 quadrilateral wall faces, zone  2.
   33972 quadrilateral interior faces, zone  3.
     282 quadrilateral interface faces, zone  4.
       6 quadrilateral wall faces, zone  5.

Building...
     mesh
     materials,
     interface,
     domains,
     zones,
	default_exterior-1
	interface-default_subface
	default_interior-1
	default_subface
	default
     parallel,
The automatic selection for flux type has changed to Rhie-Chow: momentum based.

Done.


> 
adjoint/                parallel/               server/
define/                 parametric-study/       solve/
display/                plot/                   surface/
exit                    preferences/            turbo-workflow/
file/                   print-license-usage     views/
mesh/                   report/

> /define/models/solver/density-based-implicit yes

> 
adjoint/                parallel/               server/
define/                 parametric-study/       solve/
display/                plot/                   surface/
exit                    preferences/            turbo-workflow/
file/                   print-license-usage     views/
mesh/                   report/

> /define/models/energy? yes yes invalid command [yes]
yes

> /define/models/viscous/inviscid yes

> 
adjoint/                parallel/               server/
define/                 parametric-study/       solve/
display/                plot/                   surface/
exit                    preferences/            turbo-workflow/
file/                   print-license-usage     views/
mesh/                   report/

> /define/materials/change-create air air air is a fluid
yes 
Density
ideal-gas no data required.

no no no no 

> 
adjoint/                parallel/               server/
define/                 parametric-study/       solve/
display/                plot/                   surface/
exit                    preferences/            turbo-workflow/
file/                   print-license-usage     views/
mesh/                   report/

> /mesh/modify-zones/sep-face-zone-angle 2 90 yes

 4332 faces in contiguous region 0
 228 faces in contiguous region 1
 342 faces in contiguous region 2
 4332 faces in contiguous region 3
 228 faces in contiguous region 4
 Separates zone 2 into 5 zone(s).
Updating new zone information...
   created new zone default_subface:010 from default_subface
   created new zone default_subface:009 from default_subface
   created new zone default_subface:008 from default_subface
   created new zone default_subface:007 from default_subface
done.

> 
adjoint/                parallel/               server/
define/                 parametric-study/       solve/
display/                plot/                   surface/
exit                    preferences/            turbo-workflow/
file/                   print-license-usage     views/
mesh/                   report/

> /define/boundary-conditions/zone-name  5   te

> /define/boundary-conditions/zone-name  7 wing

> /define/boundary-conditions/zone-name  2 sym1

> /define/boundary-conditions/zone-name  9 sym2

> 
adjoint/                parallel/               server/
define/                 parametric-study/       solve/
display/                plot/                   surface/
exit                    preferences/            turbo-workflow/
file/                   print-license-usage     views/
mesh/                   report/

> /define/boundary-conditions/zone-name  8 far1

> /define/boundary-conditions/zone-name 10 far2

> 
adjoint/                parallel/               server/
define/                 parametric-study/       solve/
display/                plot/                   surface/
exit                    preferences/            turbo-workflow/
file/                   print-license-usage     views/
mesh/                   report/

> /define/boundary-conditions/zone-type  8 pressure-far-field

> /define/boundary-conditions/zone-type 10 pressure-far-field

> /define/boundary-conditions/zone-type  2 symmetry

> /define/boundary-conditions/zone-type  9 symmetry

> 
adjoint/                parallel/               server/
define/                 parametric-study/       solve/
display/                plot/                   surface/
exit                    preferences/            turbo-workflow/
file/                   print-license-usage     views/
mesh/                   report/

> /define/boundary-conditions/pressure-far-field (far2 far1)
far1 no 0 no 0.1 no 300 yes no 0.93358 no 0.35837 no 0

> /define/boundary-conditions/pressure-far-field (far2 far1)
far2 no 0 no 0.1 no 300 yes no 0.93358 no 0.35837 no 0

> 
adjoint/                parallel/               server/
define/                 parametric-study/       solve/
display/                plot/                   surface/
exit                    preferences/            turbo-workflow/
file/                   print-license-usage     views/
mesh/                   report/

> /solve/initialize/compute-defaults/pressure-far-field (far2 far1)
far1

> /solve/initialize/initialize-flow

> 
adjoint/                parallel/               server/
define/                 parametric-study/       solve/
display/                plot/                   surface/
exit                    preferences/            turbo-workflow/
file/                   print-license-usage     views/
mesh/                   report/

> /solve/monitors/residual/convergence-criteria 1.e-9 1.e-9 1.e-9 1.e-9 1.e-9

> /solve/iterate 2000

  iter  continuity  x-velocity  y-velocity  z-velocity      energy     time/iter
     1  1.0000e+00  1.0000e+00  1.0000e+00  0.0000e+00  1.0000e+00  0:00:00 1999
     2  5.2440e-01  4.8299e-01  4.1294e-01  1.0000e+00  5.2496e-01  0:00:00 1998
     3  2.6669e-01  2.2230e-01  2.3621e-01  8.1816e-01  2.6691e-01  0:00:00 1997
     4  1.6313e-01  1.4614e-01  1.4054e-01  5.5489e-01  1.6319e-01  0:33:16 1996
     5  1.2381e-01  1.0366e-01  8.8409e-02  5.6727e-01  1.2390e-01  0:26:36 1995
     6  1.0221e-01  7.2648e-02  6.1470e-02  7.0340e-01  1.0232e-01  0:21:16 1994
     7  8.8062e-02  5.2867e-02  4.6350e-02  7.3469e-01  8.8194e-02  0:17:00 1993
     8  7.8049e-02  4.1269e-02  3.6457e-02  7.3404e-01  7.8178e-02  0:13:36 1992
     9  7.0766e-02  3.4403e-02  2.9711e-02  7.2922e-01  7.0882e-02  0:10:52 1991
    10  6.5911e-02  3.0579e-02  2.5066e-02  7.2778e-01  6.6011e-02  0:08:42 1990
    11  6.2881e-02  2.8718e-02  2.1794e-02  7.1036e-01  6.2963e-02  0:06:57 1989

  iter  continuity  x-velocity  y-velocity  z-velocity      energy     time/iter
    12  6.1183e-02  2.8139e-02  1.9516e-02  6.9735e-01  6.1249e-02  0:05:34 1988
    13  6.0505e-02  2.8383e-02  1.7930e-02  6.9658e-01  6.0556e-02  0:04:27 1987
    14  6.0804e-02  2.9136e-02  1.6925e-02  7.0379e-01  6.0841e-02  0:03:33 1986
    15  6.1796e-02  3.0139e-02  1.6286e-02  7.2610e-01  6.1820e-02  0:02:51 1985
    16  6.3124e-02  3.1436e-02  1.5922e-02  7.5664e-01  6.3134e-02  0:02:16 1984
    17  6.4753e-02  3.2768e-02  1.5722e-02  7.9402e-01  6.4748e-02  0:01:49 1983
    18  6.6609e-02  3.4114e-02  1.5760e-02  8.4119e-01  6.6589e-02  0:01:27 1982
    19  6.8437e-02  3.5342e-02  1.5966e-02  9.0023e-01  6.8399e-02  0:07:46 1981
    20  7.0018e-02  3.6310e-02  1.6012e-02  9.7005e-01  6.9959e-02  0:06:13 1980
    21  7.1448e-02  3.7168e-02  1.6273e-02  1.0471e+00  7.1366e-02  0:04:58 1979
    22  7.2568e-02  3.7799e-02  1.6542e-02  1.1254e+00  7.2461e-02  0:03:58 1978

  iter  continuity  x-velocity  y-velocity  z-velocity      energy     time/iter
    23  7.3241e-02  3.8039e-02  1.6828e-02  1.1994e+00  7.3106e-02  0:03:10 1977
    24  7.3540e-02  3.8071e-02  1.7081e-02  1.2630e+00  7.3377e-02  0:02:32 1976
    25  7.3332e-02  3.7982e-02  1.7294e-02  1.3099e+00  7.3138e-02  0:02:02 1975
    26  7.2656e-02  3.7596e-02  1.7382e-02  1.3362e+00  7.2430e-02  0:01:37 1974
    27  7.1581e-02  3.6984e-02  1.7361e-02  1.3406e+00  7.1323e-02  0:01:18 1973
    28  7.0009e-02  3.6293e-02  1.7388e-02  1.3194e+00  6.9719e-02  0:01:02 1972
    29  6.8010e-02  3.5439e-02  1.7468e-02  1.2815e+00  6.7688e-02  0:00:50 1971
    30  6.5698e-02  3.4464e-02  1.7576e-02  1.2248e+00  6.5345e-02  0:00:40 1970
    31  6.3238e-02  3.3483e-02  1.7803e-02  1.1567e+00  6.2856e-02  0:00:32 1969
    32  6.0428e-02  3.2671e-02  1.8433e-02  1.0903e+00  6.0019e-02  0:00:25 1968
    33  5.7460e-02  3.1855e-02  1.9381e-02  1.0250e+00  5.7026e-02  0:00:20 1967

  iter  continuity  x-velocity  y-velocity  z-velocity      energy     time/iter
    34  5.4399e-02  3.0948e-02  2.0688e-02  9.8402e-01  5.3942e-02  0:00:16 1966
    35  5.1371e-02  3.0074e-02  2.2316e-02  9.7020e-01  5.0895e-02  0:00:13 1965
    36  4.8265e-02  2.9505e-02  2.4179e-02  9.8765e-01  4.7771e-02  0:00:10 1964
    37  4.5135e-02  2.9184e-02  2.6255e-02  1.0315e+00  4.4625e-02  0:00:08 1963
    38  4.2023e-02  2.9035e-02  2.8471e-02  1.1013e+00  4.1499e-02  0:00:07 1962
    39  3.8960e-02  2.9080e-02  3.0746e-02  1.1615e+00  3.8425e-02  0:06:38 1961
    40  3.6009e-02  2.9381e-02  3.3060e-02  1.2200e+00  3.5464e-02  0:05:18 1960
    41  3.3159e-02  2.9969e-02  3.5394e-02  1.2665e+00  3.2607e-02  0:04:14 1959
    42  3.0408e-02  3.0775e-02  3.7699e-02  1.2968e+00  2.9850e-02  0:03:23 1958
    43  2.7769e-02  3.1842e-02  3.9926e-02  1.3098e+00  2.7206e-02  0:02:42 1957
    44  2.5262e-02  3.3116e-02  4.2055e-02  1.3042e+00  2.4698e-02  0:02:10 1956

  iter  continuity  x-velocity  y-velocity  z-velocity      energy     time/iter
    45  2.2902e-02  3.4540e-02  4.4093e-02  1.2831e+00  2.2337e-02  0:01:44 1955
    46  2.0695e-02  3.6075e-02  4.6020e-02  1.2477e+00  2.0132e-02  0:01:23 1954
    47  1.8657e-02  3.7750e-02  4.7824e-02  1.2002e+00  1.8099e-02  0:01:06 1953
    48  1.6803e-02  3.9531e-02  4.9493e-02  1.1418e+00  1.6255e-02  0:00:53 1952
    49  1.5148e-02  4.1405e-02  5.1017e-02  1.0787e+00  1.4616e-02  0:00:42 1951
    50  1.3729e-02  4.3365e-02  5.2383e-02  1.0147e+00  1.3222e-02  0:00:34 1950
    51  1.2562e-02  4.5394e-02  5.3580e-02  9.5518e-01  1.2089e-02  0:00:27 1949
    52  1.1656e-02  4.7460e-02  5.4600e-02  9.0350e-01  1.1228e-02  0:00:22 1948
    53  1.1029e-02  4.9534e-02  5.5442e-02  8.6202e-01  1.0658e-02  0:00:17 1947
    54  1.0679e-02  5.1601e-02  5.6102e-02  8.3642e-01  1.0371e-02  0:00:14 1946
    55  1.0588e-02  5.3667e-02  5.6568e-02  8.2751e-01  1.0347e-02  0:00:11 1945

  iter  continuity  x-velocity  y-velocity  z-velocity      energy     time/iter
    56  1.0736e-02  5.5713e-02  5.6834e-02  8.2876e-01  1.0559e-02  0:00:09 1944
    57  1.1081e-02  5.7682e-02  5.6906e-02  8.3676e-01  1.0962e-02  0:00:07 1943
    58  1.1575e-02  5.9576e-02  5.6763e-02  8.5137e-01  1.1503e-02  0:00:06 1942
    59  1.2169e-02  6.1364e-02  5.6401e-02  8.6977e-01  1.2133e-02  0:00:05 1941
    60  1.2819e-02  6.3027e-02  5.5804e-02  8.8663e-01  1.2811e-02  0:06:32 1940
    61  1.3492e-02  6.4541e-02  5.4968e-02  9.0464e-01  1.3502e-02  0:05:13 1939
    62  1.4157e-02  6.5865e-02  5.3888e-02  9.2436e-01  1.4179e-02  0:04:10 1938
    63  1.4787e-02  6.6968e-02  5.2574e-02  9.4518e-01  1.4816e-02  0:03:20 1937
    64  1.5363e-02  6.7827e-02  5.1035e-02  9.6379e-01  1.5394e-02  0:02:40 1936
    65  1.5872e-02  6.8431e-02  4.9295e-02  9.7518e-01  1.5902e-02  0:02:08 1935
    66  1.6298e-02  6.8779e-02  4.7353e-02  9.7792e-01  1.6324e-02  0:01:42 1934

  iter  continuity  x-velocity  y-velocity  z-velocity      energy     time/iter
    67  1.6628e-02  6.8831e-02  4.5233e-02  9.7410e-01  1.6648e-02  0:01:22 1933
    68  1.6858e-02  6.8457e-02  4.3001e-02  9.6392e-01  1.6871e-02  0:01:05 1932
    69  1.6984e-02  6.7727e-02  4.0680e-02  9.4821e-01  1.6989e-02  0:00:52 1931
    70  1.6999e-02  6.6754e-02  3.8280e-02  9.2623e-01  1.6995e-02  0:00:42 1930
    71  1.6904e-02  6.5442e-02  3.5900e-02  9.0549e-01  1.6892e-02  0:00:33 1929
    72  1.6711e-02  6.3679e-02  3.3620e-02  8.8851e-01  1.6691e-02  0:00:27 1928
    73  1.6423e-02  6.1717e-02  3.1395e-02  8.7670e-01  1.6395e-02  0:00:21 1927
    74  1.6043e-02  5.9638e-02  2.9313e-02  8.6771e-01  1.6007e-02  0:00:17 1926
    75  1.5585e-02  5.6950e-02  2.7682e-02  8.6440e-01  1.5543e-02  0:00:14 1925
    76  1.5079e-02  5.4166e-02  2.6260e-02  8.6708e-01  1.5031e-02  0:00:11 1924
    77  1.4530e-02  5.1433e-02  2.5042e-02  8.7578e-01  1.4478e-02  0:00:09 1923

  iter  continuity  x-velocity  y-velocity  z-velocity      energy     time/iter
    78  1.4018e-02  4.9004e-02  2.4251e-02  8.8717e-01  1.3964e-02  0:00:07 1922
    79  1.3576e-02  4.6743e-02  2.3932e-02  9.0651e-01  1.3521e-02  0:00:06 1921
    80  1.3235e-02  4.4609e-02  2.4015e-02  9.2846e-01  1.3181e-02  0:06:28 1920
    81  1.3027e-02  4.2969e-02  2.4314e-02  9.5250e-01  1.2978e-02  0:05:11 1919
    82  1.3030e-02  4.1416e-02  2.4971e-02  9.7726e-01  1.2987e-02  0:04:08 1918
    83  1.3308e-02  3.9958e-02  2.5852e-02  1.0049e+00  1.3270e-02  0:03:19 1917
    84  1.3904e-02  3.9456e-02  2.6490e-02  1.0350e+00  1.3870e-02  0:02:39 1916
    85  1.4525e-02  3.9385e-02  2.7218e-02  1.0694e+00  1.4493e-02  0:02:07 1915
    86  1.5036e-02  3.9607e-02  2.7920e-02  1.1032e+00  1.5005e-02  0:01:42 1914
    87  1.5511e-02  4.0092e-02  2.8535e-02  1.1397e+00  1.5480e-02  0:01:21 1913
    88  1.6090e-02  4.0804e-02  2.8982e-02  1.1718e+00  1.6056e-02  0:01:05 1912

  iter  continuity  x-velocity  y-velocity  z-velocity      energy     time/iter
    89  1.6724e-02  4.1710e-02  2.9169e-02  1.1898e+00  1.6685e-02  0:00:52 1911
    90  1.7278e-02  4.2677e-02  2.9124e-02  1.1871e+00  1.7234e-02  0:00:41 1910
    91  1.7815e-02  4.3303e-02  2.8943e-02  1.1793e+00  1.7764e-02  0:00:33 1909
    92  1.8271e-02  4.3863e-02  2.8518e-02  1.1868e+00  1.8214e-02  0:00:27 1908
    93  1.8635e-02  4.4256e-02  2.7855e-02  1.1822e+00  1.8571e-02  0:00:21 1907
    94  1.8907e-02  4.4505e-02  2.6999e-02  1.1744e+00  1.8837e-02  0:00:17 1906
    95  1.9059e-02  4.4512e-02  2.5984e-02  1.1700e+00  1.8985e-02  0:00:14 1905
    96  1.9158e-02  4.4289e-02  2.4840e-02  1.1854e+00  1.9081e-02  0:00:11 1904
    97  1.9229e-02  4.3760e-02  2.3610e-02  1.1809e+00  1.9150e-02  0:00:09 1903
    98  1.9234e-02  4.2865e-02  2.2320e-02  1.1847e+00  1.9154e-02  0:00:07 1902
    99  1.8904e-02  4.1748e-02  2.1013e-02  1.1942e+00  1.8826e-02  0:06:26 1901

  iter  continuity  x-velocity  y-velocity  z-velocity      energy     time/iter
   100  1.8338e-02  4.0416e-02  1.9762e-02  1.1917e+00  1.8262e-02  0:05:08 1900
   101  1.7633e-02  3.9011e-02  1.8616e-02  1.1747e+00  1.7561e-02  0:04:07 1899
   102  1.6856e-02  3.7518e-02  1.7618e-02  1.1569e+00  1.6788e-02  0:03:17 1898
   103  1.6017e-02  3.5882e-02  1.6859e-02  1.1538e+00  1.5955e-02  0:02:38 1897
   104  1.5203e-02  3.4124e-02  1.6344e-02  1.1484e+00  1.5148e-02  0:02:06 1896
   105  1.4425e-02  3.2326e-02  1.6068e-02  1.1402e+00  1.4377e-02  0:01:41 1895
   106  1.3765e-02  3.0559e-02  1.6008e-02  1.1405e+00  1.3723e-02  0:01:21 1894
   107  1.3278e-02  2.8854e-02  1.6134e-02  1.1480e+00  1.3242e-02  0:01:04 1893
   108  1.2976e-02  2.7305e-02  1.6429e-02  1.1542e+00  1.2945e-02  0:00:52 1892
   109  1.2916e-02  2.5986e-02  1.6822e-02  1.1583e+00  1.2889e-02  0:00:41 1891
   110  1.3051e-02  2.4930e-02  1.7262e-02  1.1688e+00  1.3025e-02  0:00:33 1890

  iter  continuity  x-velocity  y-velocity  z-velocity      energy     time/iter
   111  1.3377e-02  2.4175e-02  1.7731e-02  1.1794e+00  1.3352e-02  0:00:26 1889
   112  1.3882e-02  2.3820e-02  1.8172e-02  1.1871e+00  1.3855e-02  0:00:21 1888
   113  1.4499e-02  2.3899e-02  1.8578e-02  1.1885e+00  1.4470e-02  0:00:17 1887
   114  1.5185e-02  2.4444e-02  1.8914e-02  1.1793e+00  1.5152e-02  0:00:13 1886
   115  1.5786e-02  2.5259e-02  1.9213e-02  1.1580e+00  1.5749e-02  0:00:11 1885
   116  1.6225e-02  2.6308e-02  1.9458e-02  1.1296e+00  1.6183e-02  0:00:09 1884
   117  1.6488e-02  2.7515e-02  1.9614e-02  1.1065e+00  1.6441e-02  0:00:07 1883
   118  1.6625e-02  2.8766e-02  1.9707e-02  1.0876e+00  1.6572e-02  0:00:06 1882
   119  1.6639e-02  2.9960e-02  1.9751e-02  1.0735e+00  1.6577e-02  0:06:21 1881
   120  1.6604e-02  3.1081e-02  1.9756e-02  1.0748e+00  1.6533e-02  0:05:04 1880
   121  1.6513e-02  3.2090e-02  1.9723e-02  1.0900e+00  1.6432e-02  0:04:03 1879

  iter  continuity  x-velocity  y-velocity  z-velocity      energy     time/iter
   122  1.6432e-02  3.2937e-02  1.9689e-02  1.1219e+00  1.6339e-02  0:03:15 1878
   123  1.6288e-02  3.3541e-02  1.9669e-02  1.1676e+00  1.6182e-02  0:02:36 1877
   124  1.5945e-02  3.3873e-02  1.9701e-02  1.2247e+00  1.5826e-02  0:02:04 1876
   125  1.5382e-02  3.3943e-02  1.9802e-02  1.2925e+00  1.5249e-02  0:01:39 1875
   126  1.4699e-02  3.3774e-02  1.9986e-02  1.3795e+00  1.4552e-02  0:01:20 1874
   127  1.4007e-02  3.3376e-02  2.0266e-02  1.4897e+00  1.3847e-02  0:01:04 1873
   128  1.3411e-02  3.2804e-02  2.0634e-02  1.6172e+00  1.3240e-02  0:00:51 1872
   129  1.3012e-02  3.2103e-02  2.1092e-02  1.7729e+00  1.2835e-02  0:00:41 1871
   130  1.2755e-02  3.1308e-02  2.1638e-02  1.9543e+00  1.2576e-02  0:00:33 1870
   131  1.2606e-02  3.0475e-02  2.2243e-02  2.1275e+00  1.2431e-02  0:00:26 1869
   132  1.2503e-02  2.9637e-02  2.2883e-02  2.2952e+00  1.2337e-02  0:00:21 1868

  iter  continuity  x-velocity  y-velocity  z-velocity      energy     time/iter
   133  1.2368e-02  2.8820e-02  2.3522e-02  2.4753e+00  1.2213e-02  0:00:17 1867
   134  1.2356e-02  2.8112e-02  2.4142e-02  2.6088e+00  1.2216e-02  0:00:13 1866
   135  1.2455e-02  2.7551e-02  2.4721e-02  2.6953e+00  1.2332e-02  0:00:11 1865
   136  1.2785e-02  2.7154e-02  2.5261e-02  2.7905e+00  1.2682e-02  0:00:08 1864
   137  1.3384e-02  2.7118e-02  2.5725e-02  2.8672e+00  1.3299e-02  0:00:07 1863
   138  1.4134e-02  2.7328e-02  2.6111e-02  2.9930e+00  1.4065e-02  0:00:05 1862
   139  1.4886e-02  2.7573e-02  2.6504e-02  3.1127e+00  1.4830e-02  0:06:17 1861
   140  1.5492e-02  2.7948e-02  2.6910e-02  3.2492e+00  1.5447e-02  0:05:01 1860
   141  1.5852e-02  2.8498e-02  2.7322e-02  3.3430e+00  1.5814e-02  0:04:01 1859
   142  1.5795e-02  2.9280e-02  2.7671e-02  3.3672e+00  1.5763e-02  0:03:12 1858
   143  1.5351e-02  3.0423e-02  2.7850e-02  3.3266e+00  1.5324e-02  0:02:34 1857

  iter  continuity  x-velocity  y-velocity  z-velocity      energy     time/iter
   144  1.4632e-02  3.1911e-02  2.7763e-02  3.2491e+00  1.4612e-02  0:02:03 1856
   145  1.3674e-02  3.3429e-02  2.7390e-02  3.1332e+00  1.3658e-02  0:01:38 1855
   146  1.2714e-02  3.4696e-02  2.6726e-02  2.9640e+00  1.2705e-02  0:01:19 1854
   147  1.2104e-02  3.5566e-02  2.5750e-02  2.8071e+00  1.2101e-02  0:01:03 1853
   148  1.2065e-02  3.5858e-02  2.4589e-02  2.6406e+00  1.2065e-02  0:00:50 1852
   149  1.2752e-02  3.5740e-02  2.3403e-02  2.4428e+00  1.2753e-02  0:00:40 1851
   150  1.3943e-02  3.5255e-02  2.2289e-02  2.2879e+00  1.3943e-02  0:00:32 1850
   151  1.5189e-02  3.4602e-02  2.1246e-02  2.1477e+00  1.5186e-02  0:00:26 1849
   152  1.6224e-02  3.3925e-02  2.0317e-02  2.0566e+00  1.6218e-02  0:00:21 1848
   153  1.6947e-02  3.3186e-02  1.9385e-02  1.9947e+00  1.6937e-02  0:00:16 1847
   154  1.7393e-02  3.2354e-02  1.8517e-02  1.9700e+00  1.7380e-02  0:00:13 1846

  iter  continuity  x-velocity  y-velocity  z-velocity      energy     time/iter
   155  1.7631e-02  3.1603e-02  1.7683e-02  1.9944e+00  1.7613e-02  0:00:11 1845
   156  1.7706e-02  3.0931e-02  1.6887e-02  1.9631e+00  1.7685e-02  0:00:08 1844
   157  1.7627e-02  3.0232e-02  1.6252e-02  1.9615e+00  1.7603e-02  0:00:07 1843
   158  1.7560e-02  2.9690e-02  1.5686e-02  1.9361e+00  1.7534e-02  0:00:05 1842
   159  1.7622e-02  2.9169e-02  1.5204e-02  1.9028e+00  1.7594e-02  0:06:12 1841
   160  1.7821e-02  2.8684e-02  1.4740e-02  1.8343e+00  1.7791e-02  0:04:58 1840
   161  1.7890e-02  2.8340e-02  1.4200e-02  1.8392e+00  1.7860e-02  0:03:58 1839
   162  1.7928e-02  2.8007e-02  1.3674e-02  1.8616e+00  1.7898e-02  0:03:10 1838
   163  1.8073e-02  2.7918e-02  1.3145e-02  1.9181e+00  1.8041e-02  0:02:32 1837
   164  1.8126e-02  2.7827e-02  1.2609e-02  1.9916e+00  1.8093e-02  0:02:02 1836
   165  1.8041e-02  2.7467e-02  1.2126e-02  2.0602e+00  1.8008e-02  0:01:37 1835

  iter  continuity  x-velocity  y-velocity  z-velocity      energy     time/iter
   166  1.7876e-02  2.6999e-02  1.1691e-02  2.1120e+00  1.7841e-02  0:01:18 1834
   167  1.7836e-02  2.6409e-02  1.1320e-02  2.1643e+00  1.7801e-02  0:01:02 1833
   168  1.7936e-02  2.5745e-02  1.1039e-02  2.2114e+00  1.7901e-02  0:00:50 1832
   169  1.8032e-02  2.5032e-02  1.0841e-02  2.2439e+00  1.7997e-02  0:00:40 1831
   170  1.8132e-02  2.4330e-02  1.0747e-02  2.2642e+00  1.8098e-02  0:00:32 1830
   171  1.8160e-02  2.3717e-02  1.0751e-02  2.2600e+00  1.8127e-02  0:00:25 1829
   172  1.7974e-02  2.3124e-02  1.0869e-02  2.2520e+00  1.7942e-02  0:00:20 1828
   173  1.7654e-02  2.2542e-02  1.1011e-02  2.2357e+00  1.7623e-02  0:00:16 1827
   174  1.7186e-02  2.1969e-02  1.1192e-02  2.1972e+00  1.7156e-02  0:00:13 1826
   175  1.6599e-02  2.1498e-02  1.1365e-02  2.1606e+00  1.6570e-02  0:00:10 1825
   176  1.6066e-02  2.1224e-02  1.1509e-02  2.1321e+00  1.6038e-02  0:00:08 1824

  iter  continuity  x-velocity  y-velocity  z-velocity      energy     time/iter
   177  1.5652e-02  2.1104e-02  1.1627e-02  2.1090e+00  1.5627e-02  0:00:07 1823
   178  1.5543e-02  2.1253e-02  1.1745e-02  2.0858e+00  1.5520e-02  0:00:05 1822
   179  1.5711e-02  2.1582e-02  1.1845e-02  2.0613e+00  1.5690e-02  0:06:08 1821
   180  1.6132e-02  2.1972e-02  1.1934e-02  2.0351e+00  1.6114e-02  0:04:55 1820
   181  1.6761e-02  2.2272e-02  1.2022e-02  2.0132e+00  1.6745e-02  0:03:56 1819
   182  1.7374e-02  2.2465e-02  1.2106e-02  1.9866e+00  1.7359e-02  0:03:08 1818
   183  1.7947e-02  2.2619e-02  1.2159e-02  1.9707e+00  1.7933e-02  0:02:31 1817
   184  1.8319e-02  2.2605e-02  1.2190e-02  1.9501e+00  1.8305e-02  0:02:00 1816
   185  1.8411e-02  2.2515e-02  1.2248e-02  1.9363e+00  1.8397e-02  0:01:36 1815
   186  1.8254e-02  2.2423e-02  1.2299e-02  1.9162e+00  1.8241e-02  0:01:17 1814
   187  1.7825e-02  2.2224e-02  1.2282e-02  1.8851e+00  1.7812e-02  0:01:02 1813

  iter  continuity  x-velocity  y-velocity  z-velocity      energy     time/iter
   188  1.7464e-02  2.1966e-02  1.2168e-02  1.8769e+00  1.7453e-02  0:00:49 1812
   189  1.7386e-02  2.1752e-02  1.2014e-02  1.8750e+00  1.7376e-02  0:00:39 1811
   190  1.7996e-02  2.1460e-02  1.1811e-02  1.8677e+00  1.7986e-02  0:00:31 1810
   191  1.8674e-02  2.1006e-02  1.1596e-02  1.8719e+00  1.8663e-02  0:00:25 1809
   192  1.9210e-02  2.0716e-02  1.1410e-02  1.8992e+00  1.9199e-02  0:00:20 1808
   193  1.9731e-02  2.0658e-02  1.1282e-02  1.9856e+00  1.9720e-02  0:00:16 1807
   194  2.0304e-02  2.0705e-02  1.1208e-02  2.1341e+00  2.0292e-02  0:00:13 1806
   195  2.0590e-02  2.0831e-02  1.1238e-02  2.3584e+00  2.0577e-02  0:00:10 1805
   196  2.0604e-02  2.1016e-02  1.1358e-02  2.5378e+00  2.0591e-02  0:00:08 1804
   197  2.0342e-02  2.1262e-02  1.1500e-02  2.7326e+00  2.0328e-02  0:00:07 1803
   198  1.9889e-02  2.1620e-02  1.1701e-02  2.8747e+00  1.9875e-02  0:00:05 1802

  iter  continuity  x-velocity  y-velocity  z-velocity      energy     time/iter
   199  1.9132e-02  2.2135e-02  1.1935e-02  3.0003e+00  1.9118e-02  0:06:04 1801
   200  1.8191e-02  2.2802e-02  1.2151e-02  3.0569e+00  1.8177e-02  0:04:51 1800
   201  1.7245e-02  2.3405e-02  1.2319e-02  3.0547e+00  1.7233e-02  0:03:53 1799
   202  1.6084e-02  2.3840e-02  1.2439e-02  2.9424e+00  1.6071e-02  0:03:06 1798
   203  1.4946e-02  2.4049e-02  1.2504e-02  2.7978e+00  1.4933e-02  0:02:29 1797
   204  1.4273e-02  2.3872e-02  1.2462e-02  2.5809e+00  1.4260e-02  0:01:59 1796
   205  1.4297e-02  2.3315e-02  1.2313e-02  2.4191e+00  1.4284e-02  0:01:35 1795
   206  1.4673e-02  2.2642e-02  1.2129e-02  2.2969e+00  1.4658e-02  0:01:16 1794
   207  1.5243e-02  2.1931e-02  1.1929e-02  2.2640e+00  1.5227e-02  0:01:01 1793
   208  1.5929e-02  2.1122e-02  1.1678e-02  2.3029e+00  1.5912e-02  0:00:49 1792
   209  1.6693e-02  2.0595e-02  1.1509e-02  2.3954e+00  1.6674e-02  0:00:39 1791

  iter  continuity  x-velocity  y-velocity  z-velocity      energy     time/iter
   210  1.7279e-02  2.0439e-02  1.1336e-02  2.5232e+00  1.7258e-02  0:00:31 1790
   211  1.7640e-02  2.0460e-02  1.1275e-02  2.6337e+00  1.7618e-02  0:00:25 1789
   212  1.7571e-02  2.0539e-02  1.1340e-02  2.7164e+00  1.7548e-02  0:00:20 1788
   213  1.7001e-02  2.0731e-02  1.1451e-02  2.7107e+00  1.6978e-02  0:00:16 1787
   214  1.6133e-02  2.0965e-02  1.1531e-02  2.6366e+00  1.6111e-02  0:00:13 1786
   215  1.4956e-02  2.1135e-02  1.1496e-02  2.5341e+00  1.4934e-02  0:00:10 1785
   216  1.3914e-02  2.1105e-02  1.1441e-02  2.4207e+00  1.3894e-02  0:00:08 1784
   217  1.2975e-02  2.0883e-02  1.1391e-02  2.3163e+00  1.2955e-02  0:00:06 1783
   218  1.2286e-02  2.0524e-02  1.1325e-02  2.2152e+00  1.2268e-02  0:00:05 1782
   219  1.1872e-02  2.0082e-02  1.1169e-02  2.1347e+00  1.1855e-02  0:00:04 1781
   220  1.1729e-02  1.9597e-02  1.0954e-02  2.0764e+00  1.1713e-02  0:05:59 1780

  iter  continuity  x-velocity  y-velocity  z-velocity      energy     time/iter
   221  1.1744e-02  1.9187e-02  1.0721e-02  2.0327e+00  1.1729e-02  0:04:47 1779
   222  1.1819e-02  1.8850e-02  1.0547e-02  1.9980e+00  1.1804e-02  0:03:50 1778
   223  1.1816e-02  1.8566e-02  1.0421e-02  1.9537e+00  1.1803e-02  0:03:04 1777
   224  1.1687e-02  1.8527e-02  1.0379e-02  1.9190e+00  1.1674e-02  0:02:27 1776
   225  1.1478e-02  1.8574e-02  1.0363e-02  1.8847e+00  1.1467e-02  0:01:57 1775
   226  1.1210e-02  1.8773e-02  1.0565e-02  1.8588e+00  1.1199e-02  0:01:34 1774
   227  1.0821e-02  1.9024e-02  1.0835e-02  1.8478e+00  1.0812e-02  0:01:15 1773
   228  1.0447e-02  1.9231e-02  1.1099e-02  1.8458e+00  1.0439e-02  0:01:00 1772
   229  1.0129e-02  1.9297e-02  1.1316e-02  1.8541e+00  1.0122e-02  0:00:48 1771
   230  9.7898e-03  1.9355e-02  1.1375e-02  1.8739e+00  9.7826e-03  0:00:38 1770
   231  9.3655e-03  1.9116e-02  1.1383e-02  1.8847e+00  9.3582e-03  0:00:31 1769

  iter  continuity  x-velocity  y-velocity  z-velocity      energy     time/iter
   232  8.7769e-03  1.9013e-02  1.1368e-02  1.8866e+00  8.7698e-03  0:00:25 1768
   233  8.1626e-03  1.9020e-02  1.1335e-02  1.8819e+00  8.1553e-03  0:00:20 1767
   234  7.5463e-03  1.9103e-02  1.1273e-02  1.8836e+00  7.5385e-03  0:00:16 1766
   235  6.9614e-03  1.9116e-02  1.1097e-02  1.9052e+00  6.9525e-03  0:00:13 1765
   236  6.4796e-03  1.9066e-02  1.0848e-02  1.9394e+00  6.4685e-03  0:00:10 1764
   237  6.1444e-03  1.8923e-02  1.0587e-02  1.9808e+00  6.1297e-03  0:00:08 1763
   238  6.0076e-03  1.8804e-02  1.0353e-02  2.0351e+00  5.9883e-03  0:00:06 1762
   239  6.0270e-03  1.8686e-02  1.0177e-02  2.1066e+00  6.0026e-03  0:05:57 1761
   240  6.1534e-03  1.8583e-02  1.0037e-02  2.1872e+00  6.1237e-03  0:04:46 1760
   241  6.3012e-03  1.8470e-02  9.9162e-03  2.2669e+00  6.2657e-03  0:03:48 1759
   242  6.4154e-03  1.8323e-02  9.8153e-03  2.3520e+00  6.3734e-03  0:03:03 1758

  iter  continuity  x-velocity  y-velocity  z-velocity      energy     time/iter
   243  6.4902e-03  1.8123e-02  9.7772e-03  2.4253e+00  6.4408e-03  0:02:26 1757
   244  6.5466e-03  1.7869e-02  9.7866e-03  2.4744e+00  6.4887e-03  0:01:57 1756
   245  6.6621e-03  1.7655e-02  9.9106e-03  2.5155e+00  6.5958e-03  0:01:33 1755
   246  6.8758e-03  1.7583e-02  1.0125e-02  2.5629e+00  6.8022e-03  0:01:15 1754
   247  7.2614e-03  1.7740e-02  1.0430e-02  2.6068e+00  7.1825e-03  0:01:00 1753
   248  7.7764e-03  1.8021e-02  1.0819e-02  2.6523e+00  7.6940e-03  0:00:48 1752
   249  8.3322e-03  1.8288e-02  1.1317e-02  2.7390e+00  8.2471e-03  0:00:38 1751
   250  8.8496e-03  1.8596e-02  1.1915e-02  2.8072e+00  8.7617e-03  0:00:31 1750
   251  9.3197e-03  1.9184e-02  1.2630e-02  2.9267e+00  9.2295e-03  0:00:24 1749
   252  9.6522e-03  1.9982e-02  1.3425e-02  3.0514e+00  9.5594e-03  0:00:19 1748
   253  9.9162e-03  2.0909e-02  1.4243e-02  3.2111e+00  9.8213e-03  0:00:16 1747

  iter  continuity  x-velocity  y-velocity  z-velocity      energy     time/iter
   254  1.0126e-02  2.1939e-02  1.5042e-02  3.3969e+00  1.0030e-02  0:00:12 1746
   255  1.0312e-02  2.3091e-02  1.5743e-02  3.5120e+00  1.0214e-02  0:00:10 1745
   256  1.0605e-02  2.3983e-02  1.6329e-02  3.6717e+00  1.0509e-02  0:05:57 1744
   257  1.0847e-02  2.4729e-02  1.6817e-02  3.8782e+00  1.0753e-02  0:04:45 1743
   258  1.0848e-02  2.5120e-02  1.7157e-02  4.0714e+00  1.0754e-02  0:03:48 1742
   259  1.0690e-02  2.5298e-02  1.7363e-02  4.1738e+00  1.0597e-02  0:03:02 1741
   260  1.0429e-02  2.5273e-02  1.7455e-02  4.4100e+00  1.0337e-02  0:02:26 1740
   261  1.0091e-02  2.4885e-02  1.7414e-02  4.5598e+00  9.9988e-03  0:01:57 1739
   262  9.6524e-03  2.4303e-02  1.7291e-02  4.6975e+00  9.5599e-03  0:01:33 1738
   263  9.1460e-03  2.3642e-02  1.7139e-02  4.8857e+00  9.0532e-03  0:01:15 1737
   264  8.6256e-03  2.2720e-02  1.7011e-02  5.1216e+00  8.5324e-03  0:01:00 1736

  iter  continuity  x-velocity  y-velocity  z-velocity      energy     time/iter
   265  8.2334e-03  2.1973e-02  1.6939e-02  5.3922e+00  8.1419e-03  0:00:48 1735
   266  7.9348e-03  2.1159e-02  1.6842e-02  5.6826e+00  7.8461e-03  0:00:38 1734
   267  7.7282e-03  2.0524e-02  1.6739e-02  6.0662e+00  7.6446e-03  0:00:30 1733
   268  7.5159e-03  1.9954e-02  1.6610e-02  6.3503e+00  7.4376e-03  0:00:24 1732
   269  7.2365e-03  1.9497e-02  1.6445e-02  6.5545e+00  7.1632e-03  0:00:19 1731
   270  6.8386e-03  1.9170e-02  1.6311e-02  6.5700e+00  6.7695e-03  0:00:16 1730
   271  6.4441e-03  1.8980e-02  1.6196e-02  6.5914e+00  6.3799e-03  0:00:12 1729
   272  6.2127e-03  1.8980e-02  1.6069e-02  6.4953e+00  6.1550e-03  0:00:10 1728
   273  6.3827e-03  1.9109e-02  1.5938e-02  6.6048e+00  6.3341e-03  0:00:08 1727
   274  6.9510e-03  1.9379e-02  1.5745e-02  6.7891e+00  6.9122e-03  0:00:06 1726
   275  7.7621e-03  1.9678e-02  1.5504e-02  7.0463e+00  7.7316e-03  0:00:05 1725

  iter  continuity  x-velocity  y-velocity  z-velocity      energy     time/iter
   276  8.4839e-03  1.9990e-02  1.5237e-02  7.0884e+00  8.4594e-03  0:05:49 1724
   277  8.8381e-03  2.0284e-02  1.4925e-02  6.8781e+00  8.8178e-03  0:04:39 1723
   278  8.8851e-03  2.0591e-02  1.4557e-02  6.5830e+00  8.8683e-03  0:03:43 1722
   279  8.7735e-03  2.0893e-02  1.4185e-02  6.5367e+00  8.7594e-03  0:02:58 1721
   280  8.6466e-03  2.1160e-02  1.3797e-02  6.7169e+00  8.6346e-03  0:02:23 1720
   281  8.5196e-03  2.1354e-02  1.3375e-02  6.9906e+00  8.5090e-03  0:01:54 1719
   282  8.4624e-03  2.1474e-02  1.2915e-02  7.0788e+00  8.4528e-03  0:01:31 1718
   283  8.4870e-03  2.1541e-02  1.2424e-02  7.0282e+00  8.4779e-03  0:01:13 1717
   284  8.4932e-03  2.1531e-02  1.1905e-02  6.8329e+00  8.4843e-03  0:00:58 1716
   285  8.5440e-03  2.1421e-02  1.1368e-02  6.5366e+00  8.5348e-03  0:00:47 1715
   286  8.6247e-03  2.1308e-02  1.0850e-02  6.2034e+00  8.6153e-03  0:00:37 1714

  iter  continuity  x-velocity  y-velocity  z-velocity      energy     time/iter
   287  8.7092e-03  2.1130e-02  1.0384e-02  5.9582e+00  8.6996e-03  0:00:30 1713
   288  8.5903e-03  2.0836e-02  9.9231e-03  5.8583e+00  8.5801e-03  0:00:24 1712
   289  8.1559e-03  2.0426e-02  9.4534e-03  5.7824e+00  8.1450e-03  0:00:19 1711
   290  7.5567e-03  1.9891e-02  8.9804e-03  5.8073e+00  7.5449e-03  0:00:15 1710
   291  7.1211e-03  1.9208e-02  8.4749e-03  5.8891e+00  7.1085e-03  0:00:12 1709
   292  7.0079e-03  1.8383e-02  7.9708e-03  5.9819e+00  6.9952e-03  0:00:10 1708
   293  7.2708e-03  1.7485e-02  7.4629e-03  6.0475e+00  7.2586e-03  0:00:08 1707
   294  7.9242e-03  1.6581e-02  6.9820e-03  6.0114e+00  7.9129e-03  0:00:06 1706
   295  8.7302e-03  1.5675e-02  6.5536e-03  5.9135e+00  8.7196e-03  0:05:46 1705
   296  9.4884e-03  1.4852e-02  6.1323e-03  5.7874e+00  9.4780e-03  0:04:37 1704
   297  1.0043e-02  1.4179e-02  5.8353e-03  5.6139e+00  1.0033e-02  0:03:41 1703

  iter  continuity  x-velocity  y-velocity  z-velocity      energy     time/iter
   298  1.0317e-02  1.3669e-02  5.6645e-03  5.4501e+00  1.0307e-02  0:02:57 1702
   299  1.0347e-02  1.3274e-02  5.6051e-03  5.2744e+00  1.0336e-02  0:02:21 1701
   300  1.0041e-02  1.2947e-02  5.6269e-03  5.1023e+00  1.0029e-02  0:01:53 1700
   301  9.4939e-03  1.2664e-02  5.6666e-03  4.8782e+00  9.4810e-03  0:01:30 1699
   302  8.9044e-03  1.2382e-02  5.6821e-03  4.6293e+00  8.8896e-03  0:01:12 1698
   303  8.3912e-03  1.2154e-02  5.6192e-03  4.3844e+00  8.3741e-03  0:00:58 1697
   304  8.1298e-03  1.1987e-02  5.5481e-03  4.1837e+00  8.1101e-03  0:00:46 1696
   305  8.1548e-03  1.1898e-02  5.4675e-03  4.0646e+00  8.1324e-03  0:00:37 1695
   306  8.4357e-03  1.1832e-02  5.3777e-03  4.0429e+00  8.4108e-03  0:00:30 1694
   307  8.8194e-03  1.1794e-02  5.3222e-03  4.1289e+00  8.7920e-03  0:00:24 1693
   308  9.1374e-03  1.1781e-02  5.2927e-03  4.2691e+00  9.1071e-03  0:00:19 1692

  iter  continuity  x-velocity  y-velocity  z-velocity      energy     time/iter
   309  9.2166e-03  1.1764e-02  5.3517e-03  4.3769e+00  9.1827e-03  0:00:15 1691
   310  8.9896e-03  1.1686e-02  5.4056e-03  4.4391e+00  8.9510e-03  0:00:12 1690
   311  8.5847e-03  1.1592e-02  5.5180e-03  4.4627e+00  8.5403e-03  0:00:10 1689
   312  8.0235e-03  1.1459e-02  5.6564e-03  4.4727e+00  7.9721e-03  0:00:08 1688
   313  7.4965e-03  1.1312e-02  5.7905e-03  4.4874e+00  7.4374e-03  0:00:06 1687
   314  7.0633e-03  1.1138e-02  5.9398e-03  4.5567e+00  6.9965e-03  0:05:42 1686
   315  6.7884e-03  1.0921e-02  6.1266e-03  4.6742e+00  6.7148e-03  0:04:34 1685
   316  6.6653e-03  1.0664e-02  6.3598e-03  4.8431e+00  6.5862e-03  0:03:39 1684
   317  6.6288e-03  1.0399e-02  6.6377e-03  5.0242e+00  6.5453e-03  0:02:55 1683
   318  6.6391e-03  1.0150e-02  6.9581e-03  5.1750e+00  6.5521e-03  0:02:20 1682
   319  6.6364e-03  9.9070e-03  7.3128e-03  5.2450e+00  6.5462e-03  0:01:52 1681

  iter  continuity  x-velocity  y-velocity  z-velocity      energy     time/iter
   320  6.4271e-03  9.6554e-03  7.6995e-03  5.2560e+00  6.3315e-03  0:01:29 1680
   321  6.1114e-03  9.4082e-03  8.0995e-03  5.2828e+00  6.0090e-03  0:01:11 1679
   322  5.7496e-03  9.1723e-03  8.5070e-03  5.3950e+00  5.6395e-03  0:00:57 1678
   323  5.3709e-03  8.9782e-03  8.9232e-03  5.6191e+00  5.2527e-03  0:00:46 1677
   324  4.9966e-03  8.8419e-03  9.3333e-03  5.9654e+00  4.8700e-03  0:00:37 1676
   325  4.6666e-03  8.7671e-03  9.7185e-03  6.4435e+00  4.5327e-03  0:00:29 1675
   326  4.4098e-03  8.7621e-03  1.0083e-02  6.9903e+00  4.2708e-03  0:00:23 1674
   327  4.1943e-03  8.8354e-03  1.0430e-02  7.4920e+00  4.0522e-03  0:00:19 1673
   328  3.9805e-03  8.9655e-03  1.0748e-02  7.8979e+00  3.8362e-03  0:00:15 1672
   329  3.7468e-03  9.1323e-03  1.1004e-02  8.0908e+00  3.6003e-03  0:00:12 1671
   330  3.5072e-03  9.3157e-03  1.1235e-02  8.0085e+00  3.3589e-03  0:00:10 1670

  iter  continuity  x-velocity  y-velocity  z-velocity      energy     time/iter
   331  3.2738e-03  9.4973e-03  1.1428e-02  7.6852e+00  3.1244e-03  0:00:08 1669
   332  3.0772e-03  9.7150e-03  1.1572e-02  7.1425e+00  2.9290e-03  0:00:06 1668
   333  2.9408e-03  9.9275e-03  1.1671e-02  6.5423e+00  2.7974e-03  0:00:05 1667
   334  2.8799e-03  1.0150e-02  1.1723e-02  6.0000e+00  2.7458e-03  0:00:04 1666
   335  2.8798e-03  1.0390e-02  1.1726e-02  5.5807e+00  2.7580e-03  0:05:36 1665
   336  2.9147e-03  1.0654e-02  1.1685e-02  5.3995e+00  2.8064e-03  0:04:29 1664
   337  2.9810e-03  1.0921e-02  1.1607e-02  5.5804e+00  2.8862e-03  0:03:35 1663
   338  3.1098e-03  1.1178e-02  1.1493e-02  6.0121e+00  3.0291e-03  0:02:52 1662
   339  3.3008e-03  1.1408e-02  1.1346e-02  6.5759e+00  3.2335e-03  0:02:17 1661
   340  3.5196e-03  1.1612e-02  1.1166e-02  7.1541e+00  3.4641e-03  0:01:50 1660
   341  3.6725e-03  1.1787e-02  1.0956e-02  7.6591e+00  3.6259e-03  0:01:28 1659

  iter  continuity  x-velocity  y-velocity  z-velocity      energy     time/iter
   342  3.7572e-03  1.1922e-02  1.0718e-02  8.0590e+00  3.7174e-03  0:01:10 1658
   343  3.7385e-03  1.2005e-02  1.0454e-02  8.2977e+00  3.7036e-03  0:00:56 1657
   344  3.6461e-03  1.2039e-02  1.0160e-02  8.5002e+00  3.6149e-03  0:00:45 1656
   345  3.5176e-03  1.2052e-02  9.8445e-03  8.7046e+00  3.4893e-03  0:00:36 1655
   346  3.4034e-03  1.2035e-02  9.5084e-03  8.8959e+00  3.3776e-03  0:00:29 1654
   347  3.3002e-03  1.1973e-02  9.1555e-03  9.0408e+00  3.2762e-03  0:00:23 1653
   348  3.2226e-03  1.1866e-02  8.7912e-03  9.0914e+00  3.2001e-03  0:00:18 1652
   349  3.1852e-03  1.1718e-02  8.4208e-03  9.1557e+00  3.1638e-03  0:00:15 1651
   350  3.1682e-03  1.1513e-02  8.0404e-03  9.2316e+00  3.1473e-03  0:00:12 1650
   351  3.1867e-03  1.1267e-02  7.6551e-03  9.3506e+00  3.1662e-03  0:00:09 1649
   352  3.2396e-03  1.1016e-02  7.3073e-03  9.5602e+00  3.2190e-03  0:00:07 1648

  iter  continuity  x-velocity  y-velocity  z-velocity      energy     time/iter
   353  3.2655e-03  1.0742e-02  6.9093e-03  9.7836e+00  3.2443e-03  0:05:35 1647
   354  3.3035e-03  1.0457e-02  6.5204e-03  1.0042e+01  3.2815e-03  0:04:28 1646
   355  3.3244e-03  1.0167e-02  6.1683e-03  1.0351e+01  3.3014e-03  0:03:34 1645
   356  3.3670e-03  9.8612e-03  5.8293e-03  1.0785e+01  3.3427e-03  0:02:51 1644
   357  3.4319e-03  9.5184e-03  5.5156e-03  1.1300e+01  3.4064e-03  0:02:17 1643
   358  3.4956e-03  9.1633e-03  5.2244e-03  1.1883e+01  3.4687e-03  0:01:50 1642
   359  3.5332e-03  8.8228e-03  4.9592e-03  1.2594e+01  3.5047e-03  0:01:28 1641
   360  3.5463e-03  8.5006e-03  4.7419e-03  1.3470e+01  3.5159e-03  0:01:10 1640
   361  3.5298e-03  8.2481e-03  4.5706e-03  1.4464e+01  3.4969e-03  0:00:56 1639
   362  3.4998e-03  8.0996e-03  4.4270e-03  1.5409e+01  3.4642e-03  0:00:45 1638
   363  3.4677e-03  8.0023e-03  4.3050e-03  1.6228e+01  3.4294e-03  0:00:36 1637

  iter  continuity  x-velocity  y-velocity  z-velocity      energy     time/iter
   364  3.4269e-03  7.9451e-03  4.2228e-03  1.6827e+01  3.3857e-03  0:00:29 1636
   365  3.3738e-03  7.8799e-03  4.1790e-03  1.7219e+01  3.3291e-03  0:00:23 1635
   366  3.3090e-03  7.7983e-03  4.1553e-03  1.7521e+01  3.2603e-03  0:00:18 1634
   367  3.2777e-03  7.7260e-03  4.1437e-03  1.7739e+01  3.2248e-03  0:00:15 1633
   368  3.2693e-03  7.6501e-03  4.1417e-03  1.7812e+01  3.2121e-03  0:00:12 1632
   369  3.2811e-03  7.5729e-03  4.1594e-03  1.7842e+01  3.2197e-03  0:00:09 1631
   370  3.3266e-03  7.5207e-03  4.1869e-03  1.7903e+01  3.2614e-03  0:00:07 1630
   371  3.4496e-03  7.5008e-03  4.2272e-03  1.8080e+01  3.3820e-03  0:00:06 1629
   372  3.6347e-03  7.5044e-03  4.2896e-03  1.8769e+01  3.5658e-03  0:05:30 1628
   373  3.8617e-03  7.5252e-03  4.4257e-03  1.9565e+01  3.7922e-03  0:04:24 1627
   374  4.0721e-03  7.5238e-03  4.5274e-03  2.0240e+01  4.0016e-03  0:03:31 1626

  iter  continuity  x-velocity  y-velocity  z-velocity      energy     time/iter
   375  4.3183e-03  7.5010e-03  4.6323e-03  2.0770e+01  4.2474e-03  0:02:49 1625
   376  4.5822e-03  7.4759e-03  4.7874e-03  2.1234e+01  4.5112e-03  0:02:15 1624
   377  4.8113e-03  7.4100e-03  4.9699e-03  2.1912e+01  4.7397e-03  0:01:48 1623
   378  4.9465e-03  7.2408e-03  5.1556e-03  2.2623e+01  4.8732e-03  0:01:26 1622
   379  4.9374e-03  7.1260e-03  5.3540e-03  2.3176e+01  4.8608e-03  0:01:09 1621
   380  4.8059e-03  7.0509e-03  5.5700e-03  2.3644e+01  4.7245e-03  0:00:55 1620
   381  4.6317e-03  6.9604e-03  5.8057e-03  2.3959e+01  4.5447e-03  0:00:44 1619
   382  4.4638e-03  6.8402e-03  6.0627e-03  2.4034e+01  4.3714e-03  0:00:35 1618
   383  4.2471e-03  6.7710e-03  6.3366e-03  2.3943e+01  4.1484e-03  0:00:28 1617
   384  4.0263e-03  6.6891e-03  6.6095e-03  2.3974e+01  3.9208e-03  0:00:23 1616
   385  3.8763e-03  6.6168e-03  6.8822e-03  2.4376e+01  3.7660e-03  0:00:18 1615

  iter  continuity  x-velocity  y-velocity  z-velocity      energy     time/iter
   386  3.7767e-03  6.5904e-03  7.1615e-03  2.5476e+01  3.6634e-03  0:00:14 1614
   387  3.6733e-03  6.5964e-03  7.4490e-03  2.6745e+01  3.5575e-03  0:00:12 1613
   388  3.5844e-03  6.6371e-03  7.7392e-03  2.8318e+01  3.4671e-03  0:00:09 1612
   389  3.5031e-03  6.6992e-03  8.0283e-03  3.0166e+01  3.3852e-03  0:00:07 1611
   390  3.3883e-03  6.8076e-03  8.3141e-03  3.1986e+01  3.2695e-03  0:00:06 1610
   391  3.2573e-03  6.9314e-03  8.5992e-03  3.3444e+01  3.1376e-03  0:00:05 1609
   392  3.1211e-03  7.0973e-03  8.9002e-03  3.4752e+01  3.0009e-03  0:05:25 1608
   393  2.9433e-03  7.2420e-03  9.1222e-03  3.6128e+01  2.8216e-03  0:04:20 1607
   394  2.7750e-03  7.4275e-03  9.3456e-03  3.7354e+01  2.6526e-03  0:03:28 1606
   395  2.6311e-03  7.6501e-03  9.5579e-03  3.8485e+01  2.5098e-03  0:02:46 1605
   396  2.5181e-03  7.9109e-03  9.7514e-03  3.9569e+01  2.4000e-03  0:02:13 1604

  iter  continuity  x-velocity  y-velocity  z-velocity      energy     time/iter
   397  2.4434e-03  8.2172e-03  9.9194e-03  4.0375e+01  2.3310e-03  0:01:46 1603
   398  2.4146e-03  8.5608e-03  1.0059e-02  4.0786e+01  2.3105e-03  0:01:25 1602
   399  2.4160e-03  8.8991e-03  1.0177e-02  4.0789e+01  2.3216e-03  0:01:08 1601
   400  2.4377e-03  9.2376e-03  1.0269e-02  4.0514e+01  2.3536e-03  0:00:54 1600
   401  2.4727e-03  9.5740e-03  1.0330e-02  3.9876e+01  2.3989e-03  0:00:43 1599
   402  2.5071e-03  9.9149e-03  1.0357e-02  3.9145e+01  2.4429e-03  0:00:35 1598
   403  2.5350e-03  1.0267e-02  1.0355e-02  3.8385e+01  2.4796e-03  0:00:28 1597
   404  2.5538e-03  1.0630e-02  1.0324e-02  3.7692e+01  2.5064e-03  0:00:22 1596
   405  2.5618e-03  1.0995e-02  1.0268e-02  3.7002e+01  2.5217e-03  0:00:18 1595
   406  2.5894e-03  1.1331e-02  1.0180e-02  3.6774e+01  2.5564e-03  0:00:14 1594
   407  2.6135e-03  1.1657e-02  1.0049e-02  3.7233e+01  2.5869e-03  0:00:11 1593

  iter  continuity  x-velocity  y-velocity  z-velocity      energy     time/iter
   408  2.6345e-03  1.1965e-02  9.8843e-03  3.8135e+01  2.6134e-03  0:00:09 1592
   409  2.6266e-03  1.2233e-02  9.6935e-03  3.9436e+01  2.6103e-03  0:00:07 1591
   410  2.6418e-03  1.2457e-02  9.4767e-03  4.1598e+01  2.6296e-03  0:00:06 1590
   411  2.6766e-03  1.2620e-02  9.2352e-03  4.3908e+01  2.6678e-03  0:00:05 1589
   412  2.7191e-03  1.2728e-02  8.9675e-03  4.6573e+01  2.7128e-03  0:05:21 1588
   413  2.7891e-03  1.2793e-02  8.6716e-03  4.9157e+01  2.7849e-03  0:04:17 1587
   414  2.9080e-03  1.2817e-02  8.3428e-03  5.1390e+01  2.9051e-03  0:03:25 1586
   415  3.0786e-03  1.2804e-02  8.0095e-03  5.3133e+01  3.0764e-03  0:02:44 1585
   416  3.2345e-03  1.2728e-02  7.6208e-03  5.4709e+01  3.2326e-03  0:02:11 1584
   417  3.4012e-03  1.2600e-02  7.2351e-03  5.5714e+01  3.3991e-03  0:01:45 1583
   418  3.5788e-03  1.2431e-02  6.8589e-03  5.6112e+01  3.5764e-03  0:01:24 1582

  iter  continuity  x-velocity  y-velocity  z-velocity      energy     time/iter
   419  3.7589e-03  1.2211e-02  6.4969e-03  5.6372e+01  3.7558e-03  0:01:07 1581
   420  3.8641e-03  1.1965e-02  6.1422e-03  5.6813e+01  3.8605e-03  0:00:54 1580
   421  3.8613e-03  1.1698e-02  5.8010e-03  5.7626e+01  3.8572e-03  0:00:43 1579
   422  3.7819e-03  1.1406e-02  5.4787e-03  5.8709e+01  3.7774e-03  0:00:34 1578
   423  3.7050e-03  1.1077e-02  5.1808e-03  5.9909e+01  3.7001e-03  0:00:27 1577
   424  3.5854e-03  1.0730e-02  4.9200e-03  6.1381e+01  3.5802e-03  0:00:22 1576
   425  3.4467e-03  1.0393e-02  4.6849e-03  6.3202e+01  3.4412e-03  0:00:18 1575
   426  3.2520e-03  1.0074e-02  4.5006e-03  6.5275e+01  3.2464e-03  0:00:14 1574
   427  3.0239e-03  9.7420e-03  4.3759e-03  6.7611e+01  3.0183e-03  0:00:11 1573
   428  2.8032e-03  9.4107e-03  4.2867e-03  6.9245e+01  2.7976e-03  0:00:09 1572
   429  2.6591e-03  9.0885e-03  4.2188e-03  7.1146e+01  2.6537e-03  0:00:07 1571

  iter  continuity  x-velocity  y-velocity  z-velocity      energy     time/iter
   430  2.5892e-03  8.7984e-03  4.1692e-03  7.3167e+01  2.5840e-03  0:00:06 1570
   431  2.5340e-03  8.5423e-03  4.1398e-03  7.5704e+01  2.5293e-03  0:05:18 1569
   432  2.4275e-03  8.3348e-03  4.1226e-03  7.8694e+01  2.4233e-03  0:04:15 1568
   433  2.3180e-03  8.1542e-03  4.1183e-03  8.1398e+01  2.3144e-03  0:03:24 1567
   434  2.2357e-03  7.9412e-03  4.1155e-03  8.3981e+01  2.2327e-03  0:02:43 1566
   435  2.2050e-03  7.7300e-03  4.1109e-03  8.6981e+01  2.2025e-03  0:02:10 1565
   436  2.2534e-03  7.5534e-03  4.1108e-03  8.9878e+01  2.2512e-03  0:01:44 1564
   437  2.3041e-03  7.4097e-03  4.1604e-03  9.2471e+01  2.3021e-03  0:01:23 1563
   438  2.2870e-03  7.2607e-03  4.0658e-03  9.5345e+01  2.2852e-03  0:01:06 1562
   439  2.2632e-03  7.1591e-03  4.0178e-03  9.7620e+01  2.2616e-03  0:00:53 1561
   440  2.2385e-03  7.0911e-03  3.9793e-03  9.9464e+01  2.2370e-03  0:00:42 1560

  iter  continuity  x-velocity  y-velocity  z-velocity      energy     time/iter
   441  2.2273e-03  7.0368e-03  3.9348e-03  1.0079e+02  2.2258e-03  0:00:34 1559
   442  2.2339e-03  6.9950e-03  3.8815e-03  1.0186e+02  2.2323e-03  0:00:27 1558
   443  2.2395e-03  6.9586e-03  3.8201e-03  1.0251e+02  2.2378e-03  0:00:22 1557
   444  2.2256e-03  6.9113e-03  3.7546e-03  1.0288e+02  2.2237e-03  0:00:17 1556
   445  2.1984e-03  6.8598e-03  3.6964e-03  1.0321e+02  2.1961e-03  0:00:14 1555
   446  2.1531e-03  6.8104e-03  3.6466e-03  1.0337e+02  2.1505e-03  0:00:11 1554
   447  2.1209e-03  6.7738e-03  3.6040e-03  1.0355e+02  2.1179e-03  0:00:09 1553
   448  2.0988e-03  6.7566e-03  3.5670e-03  1.0420e+02  2.0956e-03  0:00:07 1552
   449  2.0741e-03  6.7479e-03  3.5386e-03  1.0504e+02  2.0707e-03  0:00:06 1551
   450  2.0420e-03  6.7613e-03  3.5151e-03  1.0593e+02  2.0386e-03  0:00:05 1550
   451  2.0304e-03  6.8058e-03  3.5006e-03  1.0664e+02  2.0269e-03  0:05:13 1549

  iter  continuity  x-velocity  y-velocity  z-velocity      energy     time/iter
   452  2.0159e-03  6.8288e-03  3.5019e-03  1.0740e+02  2.0122e-03  0:04:11 1548
   453  1.9967e-03  6.8234e-03  3.5103e-03  1.0834e+02  1.9928e-03  0:03:20 1547
   454  1.9895e-03  6.7936e-03  3.5297e-03  1.0946e+02  1.9855e-03  0:02:40 1546
   455  1.9771e-03  6.7631e-03  3.5541e-03  1.1115e+02  1.9731e-03  0:02:08 1545
   456  1.9652e-03  6.7445e-03  3.5796e-03  1.1310e+02  1.9614e-03  0:01:42 1544
   457  1.9753e-03  6.7639e-03  3.5999e-03  1.1543e+02  1.9717e-03  0:01:22 1543
   458  2.0115e-03  6.7685e-03  3.6299e-03  1.1764e+02  2.0079e-03  0:01:05 1542
   459  2.0455e-03  6.7615e-03  3.7142e-03  1.1950e+02  2.0419e-03  0:00:52 1541
   460  2.0365e-03  6.7275e-03  3.6919e-03  1.2117e+02  2.0329e-03  0:00:42 1540
   461  2.1129e-03  6.7541e-03  3.7069e-03  1.2283e+02  2.1094e-03  0:00:33 1539
   462  2.1326e-03  6.6911e-03  3.6938e-03  1.2411e+02  2.1291e-03  0:00:27 1538

  iter  continuity  x-velocity  y-velocity  z-velocity      energy     time/iter
   463  2.2065e-03  6.6234e-03  3.6897e-03  1.2584e+02  2.2032e-03  0:00:21 1537
   464  2.3462e-03  6.6046e-03  3.6678e-03  1.2913e+02  2.3431e-03  0:00:17 1536
   465  2.5014e-03  6.6055e-03  3.6420e-03  1.3418e+02  2.4985e-03  0:00:14 1535
   466  2.6723e-03  6.6161e-03  3.6302e-03  1.4013e+02  2.6695e-03  0:00:11 1534
   467  2.8239e-03  6.6225e-03  3.6266e-03  1.4511e+02  2.8211e-03  0:05:15 1533
   468  2.9840e-03  6.6256e-03  3.6297e-03  1.4989e+02  2.9813e-03  0:04:12 1532
   469  3.1422e-03  6.6237e-03  3.6373e-03  1.5444e+02  3.1393e-03  0:03:22 1531
   470  3.2904e-03  6.6221e-03  3.6404e-03  1.5751e+02  3.2875e-03  0:02:41 1530
   471  3.3877e-03  6.6149e-03  3.6499e-03  1.6005e+02  3.3847e-03  0:02:09 1529
   472  3.3474e-03  6.6134e-03  3.6446e-03  1.6180e+02  3.3444e-03  0:01:43 1528
   473  3.2228e-03  6.6277e-03  3.6225e-03  1.6242e+02  3.2199e-03  0:01:22 1527

  iter  continuity  x-velocity  y-velocity  z-velocity      energy     time/iter
   474  3.0778e-03  6.6553e-03  3.5920e-03  1.6210e+02  3.0750e-03  0:01:06 1526
   475  2.9086e-03  6.6540e-03  3.5569e-03  1.6220e+02  2.9059e-03  0:00:53 1525
   476  2.7345e-03  6.6044e-03  3.5213e-03  1.6382e+02  2.7317e-03  0:00:42 1524
   477  2.5943e-03  6.5641e-03  3.4828e-03  1.6769e+02  2.5916e-03  0:00:34 1523
   478  2.5279e-03  6.5374e-03  3.4381e-03  1.7251e+02  2.5253e-03  0:00:27 1522
   479  2.5152e-03  6.5155e-03  3.4020e-03  1.7900e+02  2.5127e-03  0:00:21 1521
   480  2.5056e-03  6.4730e-03  3.3747e-03  1.8717e+02  2.5030e-03  0:00:17 1520
   481  2.4816e-03  6.4294e-03  3.2800e-03  1.9532e+02  2.4791e-03  0:00:14 1519
   482  2.4278e-03  6.3736e-03  3.2259e-03  2.0193e+02  2.4254e-03  0:00:11 1518
   483  2.3184e-03  6.2840e-03  3.1871e-03  2.0603e+02  2.3159e-03  0:00:09 1517
   484  2.1708e-03  6.1694e-03  3.1481e-03  2.0799e+02  2.1685e-03  0:00:07 1516

  iter  continuity  x-velocity  y-velocity  z-velocity      energy     time/iter
   485  2.0079e-03  6.0702e-03  3.1063e-03  2.0716e+02  2.0057e-03  0:00:06 1515
   486  1.8677e-03  5.9936e-03  3.0642e-03  2.0608e+02  1.8658e-03  0:00:04 1514
   487  1.7520e-03  5.9524e-03  3.0251e-03  2.0725e+02  1.7503e-03  0:00:04 1513
   488  1.6857e-03  5.9275e-03  2.9812e-03  2.1075e+02  1.6844e-03  0:00:03 1512
   489  1.6670e-03  5.8990e-03  2.9368e-03  2.1461e+02  1.6660e-03  0:05:04 1511
   490  1.6786e-03  5.8489e-03  2.8991e-03  2.1900e+02  1.6778e-03  0:04:03 1510
   491  1.7241e-03  5.7938e-03  2.8678e-03  2.2221e+02  1.7234e-03  0:03:15 1509
   492  1.8123e-03  5.7566e-03  2.8420e-03  2.2569e+02  1.8118e-03  0:02:36 1508
   493  1.9563e-03  5.7542e-03  2.8229e-03  2.2891e+02  1.9558e-03  0:02:04 1507
   494  2.1495e-03  5.7808e-03  2.8178e-03  2.3122e+02  2.1489e-03  0:01:39 1506
   495  2.3614e-03  5.8073e-03  2.8286e-03  2.3297e+02  2.3607e-03  0:01:20 1505

  iter  continuity  x-velocity  y-velocity  z-velocity      energy     time/iter
   496  2.5939e-03  5.8073e-03  2.8487e-03  2.3481e+02  2.5929e-03  0:01:04 1504
   497  2.8216e-03  5.8012e-03  2.8724e-03  2.3751e+02  2.8203e-03  0:00:51 1503
   498  3.0019e-03  5.7971e-03  2.8995e-03  2.4002e+02  3.0003e-03  0:00:41 1502
   499  3.0752e-03  5.8091e-03  2.9281e-03  2.4281e+02  3.0734e-03  0:00:32 1501
   500  3.0320e-03  5.8494e-03  2.9507e-03  2.4480e+02  3.0302e-03  0:00:26 1500
   501  2.8937e-03  5.9011e-03  2.9716e-03  2.4533e+02  2.8919e-03  0:00:21 1499
   502  2.7209e-03  5.9409e-03  3.0079e-03  2.4162e+02  2.7189e-03  0:00:17 1498
   503  2.5554e-03  5.9613e-03  3.0497e-03  2.3869e+02  2.5533e-03  0:00:13 1497
   504  2.4213e-03  5.9632e-03  3.1157e-03  2.3630e+02  2.4191e-03  0:00:11 1496
   505  2.3334e-03  5.9489e-03  3.1547e-03  2.3425e+02  2.3310e-03  0:00:08 1495
   506  2.3146e-03  5.9299e-03  3.1268e-03  2.3463e+02  2.3121e-03  0:00:07 1494

  iter  continuity  x-velocity  y-velocity  z-velocity      energy     time/iter
   507  2.3693e-03  5.9063e-03  3.1059e-03  2.3362e+02  2.3667e-03  0:00:05 1493
   508  2.5265e-03  5.8788e-03  3.0786e-03  2.3239e+02  2.5239e-03  0:00:04 1492
   509  2.7710e-03  5.8419e-03  3.0408e-03  2.3382e+02  2.7683e-03  0:00:03 1491
   510  3.0800e-03  5.7798e-03  3.0024e-03  2.3512e+02  3.0774e-03  0:00:03 1490
   511  3.4261e-03  5.6797e-03  2.9592e-03  2.3674e+02  3.4234e-03  0:00:02 1489
   512  3.7524e-03  5.5544e-03  2.9150e-03  2.3784e+02  3.7496e-03  0:04:59 1488
   513  3.9895e-03  5.4378e-03  2.8769e-03  2.3873e+02  3.9866e-03  0:03:59 1487
   514  4.1392e-03  5.3528e-03  2.8454e-03  2.3822e+02  4.1363e-03  0:03:11 1486
   515  4.1907e-03  5.2881e-03  2.8206e-03  2.3790e+02  4.1879e-03  0:02:33 1485
   516  4.1342e-03  5.2328e-03  2.7993e-03  2.3728e+02  4.1316e-03  0:02:02 1484
   517  3.9264e-03  5.1880e-03  2.7823e-03  2.3499e+02  3.9239e-03  0:01:38 1483

  iter  continuity  x-velocity  y-velocity  z-velocity      energy     time/iter
   518  3.6297e-03  5.1683e-03  2.7748e-03  2.3421e+02  3.6275e-03  0:01:18 1482
   519  3.2991e-03  5.1604e-03  2.7695e-03  2.3600e+02  3.2972e-03  0:01:02 1481
   520  2.9749e-03  5.1500e-03  2.7622e-03  2.4052e+02  2.9731e-03  0:00:50 1480
   521  2.7167e-03  5.1401e-03  2.7570e-03  2.4777e+02  2.7151e-03  0:00:40 1479
   522  2.5392e-03  5.1162e-03  2.7578e-03  2.5844e+02  2.5377e-03  0:00:32 1478
   523  2.4175e-03  5.0887e-03  2.7613e-03  2.7200e+02  2.4160e-03  0:00:26 1477
   524  2.3104e-03  5.0833e-03  2.7658e-03  2.8486e+02  2.3089e-03  0:00:20 1476
   525  2.2028e-03  5.1141e-03  2.7674e-03  2.9749e+02  2.2014e-03  0:00:16 1475
   526  2.1131e-03  5.1626e-03  2.7747e-03  3.0773e+02  2.1116e-03  0:00:13 1474
   527  2.0666e-03  5.2019e-03  2.7934e-03  3.1703e+02  2.0650e-03  0:00:10 1473
   528  2.0180e-03  5.2384e-03  2.8624e-03  3.2621e+02  2.0163e-03  0:00:08 1472

  iter  continuity  x-velocity  y-velocity  z-velocity      energy     time/iter
   529  1.9716e-03  5.2559e-03  2.8115e-03  3.3453e+02  1.9697e-03  0:00:07 1471
   530  1.9533e-03  5.2564e-03  2.8165e-03  3.3982e+02  1.9513e-03  0:00:05 1470
   531  1.9410e-03  5.2525e-03  2.8357e-03  3.4231e+02  1.9389e-03  0:00:04 1469
   532  1.9491e-03  5.2325e-03  2.8578e-03  3.4331e+02  1.9470e-03  0:00:03 1468
   533  1.9866e-03  5.2385e-03  2.8762e-03  3.4458e+02  1.9844e-03  0:00:03 1467
   534  2.0628e-03  5.2723e-03  2.8941e-03  3.4716e+02  2.0606e-03  0:04:55 1466
   535  2.1775e-03  5.3168e-03  2.9133e-03  3.5229e+02  2.1753e-03  0:03:56 1465
   536  2.3069e-03  5.3550e-03  2.9390e-03  3.5904e+02  2.3046e-03  0:03:09 1464
   537  2.4455e-03  5.3857e-03  2.9682e-03  3.6684e+02  2.4432e-03  0:02:31 1463
   538  2.5978e-03  5.4227e-03  2.9964e-03  3.7686e+02  2.5954e-03  0:02:01 1462
   539  2.7486e-03  5.4564e-03  3.0295e-03  3.8789e+02  2.7462e-03  0:01:36 1461

  iter  continuity  x-velocity  y-velocity  z-velocity      energy     time/iter
   540  2.9014e-03  5.5158e-03  3.0683e-03  3.9896e+02  2.8991e-03  0:01:17 1460
   541  3.0508e-03  5.6152e-03  3.1180e-03  4.1059e+02  3.0486e-03  0:01:02 1459
   542  3.1862e-03  5.7146e-03  3.1768e-03  4.2127e+02  3.1841e-03  0:00:49 1458
   543  3.2993e-03  5.7808e-03  3.2455e-03  4.2833e+02  3.2971e-03  0:00:39 1457
   544  3.3925e-03  5.8448e-03  3.3141e-03  4.3188e+02  3.3902e-03  0:00:31 1456
   545  3.4580e-03  5.9069e-03  3.3775e-03  4.3401e+02  3.4557e-03  0:00:25 1455
   546  3.4792e-03  5.9776e-03  3.4281e-03  4.3486e+02  3.4768e-03  0:00:20 1454
   547  3.4367e-03  6.0696e-03  3.4717e-03  4.3298e+02  3.4342e-03  0:00:16 1453
   548  3.3233e-03  6.1980e-03  3.5092e-03  4.3038e+02  3.3208e-03  0:00:13 1452
   549  3.1607e-03  6.3257e-03  3.5492e-03  4.2630e+02  3.1581e-03  0:00:10 1451
   550  2.9762e-03  6.4318e-03  3.5965e-03  4.2421e+02  2.9734e-03  0:00:08 1450

  iter  continuity  x-velocity  y-velocity  z-velocity      energy     time/iter
   551  2.8217e-03  6.5114e-03  3.6454e-03  4.2485e+02  2.8186e-03  0:00:07 1449
   552  2.7274e-03  6.5685e-03  3.6863e-03  4.2986e+02  2.7242e-03  0:00:05 1448
   553  2.7227e-03  6.6200e-03  3.7409e-03  4.3541e+02  2.7193e-03  0:00:04 1447
   554  2.7941e-03  6.6709e-03  3.7353e-03  4.4158e+02  2.7907e-03  0:00:03 1446
   555  2.9837e-03  6.7540e-03  3.6959e-03  4.4793e+02  2.9805e-03  0:00:03 1445
   556  3.2507e-03  6.7729e-03  3.6660e-03  4.5372e+02  3.2476e-03  0:00:02 1444
   557  3.6066e-03  6.7355e-03  3.6295e-03  4.5803e+02  3.6037e-03  0:04:50 1443
   558  4.0113e-03  6.6929e-03  3.5929e-03  4.6272e+02  4.0085e-03  0:03:52 1442
   559  4.3959e-03  6.6235e-03  3.5624e-03  4.6779e+02  4.3931e-03  0:03:06 1441
   560  4.6983e-03  6.5474e-03  3.5465e-03  4.7126e+02  4.6955e-03  0:02:28 1440
   561  4.8699e-03  6.4857e-03  3.5393e-03  4.7060e+02  4.8672e-03  0:01:59 1439

  iter  continuity  x-velocity  y-velocity  z-velocity      energy     time/iter
   562  4.8781e-03  6.4354e-03  3.5352e-03  4.6709e+02  4.8755e-03  0:01:35 1438
   563  4.7141e-03  6.3663e-03  3.5392e-03  4.5978e+02  4.7116e-03  0:01:16 1437
   564  4.4076e-03  6.3006e-03  3.5485e-03  4.4826e+02  4.4053e-03  0:01:01 1436
   565  3.9533e-03  6.2375e-03  3.5486e-03  4.3469e+02  3.9512e-03  0:00:48 1435
   566  3.4545e-03  6.1799e-03  3.5529e-03  4.2060e+02  3.4525e-03  0:00:39 1434
   567  3.0219e-03  6.1417e-03  3.5405e-03  4.0670e+02  3.0200e-03  0:00:31 1433
   568  2.7382e-03  6.0962e-03  3.5170e-03  3.9461e+02  2.7363e-03  0:00:25 1432
   569  2.5915e-03  6.0727e-03  3.4930e-03  3.8564e+02  2.5893e-03  0:00:20 1431
   570  2.5346e-03  6.0832e-03  3.4786e-03  3.7752e+02  2.5321e-03  0:00:16 1430
   571  2.5200e-03  6.1119e-03  3.4749e-03  3.7173e+02  2.5171e-03  0:00:13 1429
   572  2.5049e-03  6.1602e-03  3.4692e-03  3.6891e+02  2.5015e-03  0:00:10 1428

  iter  continuity  x-velocity  y-velocity  z-velocity      energy     time/iter
   573  2.4692e-03  6.2270e-03  3.5490e-03  3.6709e+02  2.4651e-03  0:00:08 1427
   574  2.4018e-03  6.2804e-03  3.4973e-03  3.6862e+02  2.3969e-03  0:00:06 1426
   575  2.4154e-03  6.3194e-03  3.4965e-03  3.7418e+02  2.4098e-03  0:00:05 1425
   576  2.4954e-03  6.3248e-03  3.5030e-03  3.8145e+02  2.4891e-03  0:00:04 1424
   577  2.6227e-03  6.3056e-03  3.5053e-03  3.8970e+02  2.6157e-03  0:00:03 1423
   578  2.7662e-03  6.2632e-03  3.4943e-03  4.0126e+02  2.7588e-03  0:00:03 1422
   579  2.9171e-03  6.2196e-03  3.4806e-03  4.1761e+02  2.9092e-03  0:00:02 1421
   580  3.0723e-03  6.2178e-03  3.4644e-03  4.3807e+02  3.0639e-03  0:04:46 1420
   581  3.2532e-03  6.2543e-03  3.4575e-03  4.6131e+02  3.2445e-03  0:03:48 1419
   582  3.4522e-03  6.2835e-03  3.4554e-03  4.8644e+02  3.4433e-03  0:03:03 1418
   583  3.6821e-03  6.2952e-03  3.4653e-03  5.1279e+02  3.6729e-03  0:02:26 1417

  iter  continuity  x-velocity  y-velocity  z-velocity      energy     time/iter
   584  3.9299e-03  6.2949e-03  3.4916e-03  5.3696e+02  3.9207e-03  0:01:57 1416
   585  4.1899e-03  6.3022e-03  3.5299e-03  5.5546e+02  4.1806e-03  0:01:33 1415
   586  4.4606e-03  6.3143e-03  3.5820e-03  5.6857e+02  4.4513e-03  0:01:15 1414
   587  4.7174e-03  6.3502e-03  3.6554e-03  5.7864e+02  4.7082e-03  0:01:00 1413
   588  4.9320e-03  6.4258e-03  3.7605e-03  5.8362e+02  4.9230e-03  0:00:48 1412
   589  5.0886e-03  6.5070e-03  3.8896e-03  5.8803e+02  5.0796e-03  0:00:38 1411
   590  5.1380e-03  6.5781e-03  4.0442e-03  5.9117e+02  5.1288e-03  0:00:30 1410
   591  5.0873e-03  6.6731e-03  4.2019e-03  5.9796e+02  5.0778e-03  0:00:24 1409
   592  4.9376e-03  6.8016e-03  4.3541e-03  6.0747e+02  4.9277e-03  0:00:19 1408
   593  4.7137e-03  6.9570e-03  4.4830e-03  6.1686e+02  4.7033e-03  0:00:16 1407
   594  4.4373e-03  7.1018e-03  4.5828e-03  6.2718e+02  4.4263e-03  0:00:12 1406

  iter  continuity  x-velocity  y-velocity  z-velocity      energy     time/iter
   595  4.1596e-03  7.2418e-03  4.6487e-03  6.2727e+02  4.1480e-03  0:00:10 1405
   596  3.9549e-03  7.3319e-03  4.6749e-03  6.1707e+02  3.9427e-03  0:00:08 1404
   597  3.9489e-03  7.2920e-03  4.6678e-03  5.9806e+02  3.9367e-03  0:00:06 1403
   598  4.1721e-03  7.1341e-03  4.6348e-03  5.7422e+02  4.1603e-03  0:00:05 1402
   599  4.5961e-03  6.9097e-03  4.5830e-03  5.5599e+02  4.5851e-03  0:00:04 1401
   600  5.1142e-03  6.6812e-03  4.5212e-03  5.4550e+02  5.1039e-03  0:00:03 1400
   601  5.6015e-03  6.4577e-03  4.4398e-03  5.4423e+02  5.5916e-03  0:00:03 1399
   602  5.9535e-03  6.2236e-03  4.3543e-03  5.4817e+02  5.9437e-03  0:04:42 1398
   603  6.1286e-03  6.0571e-03  4.2674e-03  5.5294e+02  6.1187e-03  0:03:45 1397
   604  6.0813e-03  5.9331e-03  4.1957e-03  5.5592e+02  6.0710e-03  0:03:00 1396
   605  5.8000e-03  5.8234e-03  4.1389e-03  5.5731e+02  5.7889e-03  0:02:24 1395

  iter  continuity  x-velocity  y-velocity  z-velocity      energy     time/iter
   606  5.3415e-03  5.7380e-03  4.0877e-03  5.5927e+02  5.3293e-03  0:01:55 1394
   607  4.8494e-03  5.7061e-03  4.0348e-03  5.6033e+02  4.8357e-03  0:01:32 1393
   608  4.3080e-03  5.6486e-03  3.9920e-03  5.5996e+02  4.2924e-03  0:01:14 1392
   609  3.8204e-03  5.5762e-03  3.9427e-03  5.6186e+02  3.8025e-03  0:00:59 1391
   610  3.4420e-03  5.5105e-03  3.8908e-03  5.6180e+02  3.4218e-03  0:00:47 1390
   611  3.2170e-03  5.5068e-03  3.8337e-03  5.6535e+02  3.1949e-03  0:00:38 1389
   612  3.1073e-03  5.5316e-03  3.7843e-03  5.7091e+02  3.0837e-03  0:00:30 1388
   613  3.0471e-03  5.5455e-03  3.7480e-03  5.7498e+02  3.0223e-03  0:00:24 1387
   614  2.9845e-03  5.5662e-03  3.7193e-03  5.7809e+02  2.9585e-03  0:00:19 1386
   615  2.8950e-03  5.5957e-03  3.7049e-03  5.8557e+02  2.8674e-03  0:00:15 1385
   616  2.8035e-03  5.6191e-03  3.7408e-03  5.9515e+02  2.7742e-03  0:00:12 1384

  iter  continuity  x-velocity  y-velocity  z-velocity      energy     time/iter
   617  2.6960e-03  5.6070e-03  3.7370e-03  6.0610e+02  2.6647e-03  0:00:10 1383
   618  2.6533e-03  5.5965e-03  3.7852e-03  6.3205e+02  2.6208e-03  0:00:08 1382
   619  2.6615e-03  5.5756e-03  3.8153e-03  6.6211e+02  2.6285e-03  0:00:06 1381
   620  2.7139e-03  5.5721e-03  3.8726e-03  6.8635e+02  2.6811e-03  0:00:05 1380
   621  2.7959e-03  5.5829e-03  3.9426e-03  7.0613e+02  2.7638e-03  0:00:04 1379
   622  2.8903e-03  5.5957e-03  4.0148e-03  7.3287e+02  2.8590e-03  0:00:03 1378
   623  2.9965e-03  5.6313e-03  4.0918e-03  7.5382e+02  2.9664e-03  0:00:03 1377
   624  3.1138e-03  5.6688e-03  4.1717e-03  7.7885e+02  3.0849e-03  0:00:02 1376
   625  3.2218e-03  5.6810e-03  4.2512e-03  8.0774e+02  3.1940e-03  0:04:37 1375
   626  3.3058e-03  5.6782e-03  4.3293e-03  8.3037e+02  3.2789e-03  0:03:41 1374
   627  3.3457e-03  5.6887e-03  4.4022e-03  8.4006e+02  3.3196e-03  0:02:57 1373

  iter  continuity  x-velocity  y-velocity  z-velocity      energy     time/iter
   628  3.3323e-03  5.7174e-03  4.4778e-03  8.4124e+02  3.3065e-03  0:02:21 1372
   629  3.2676e-03  5.7690e-03  4.5566e-03  8.3787e+02  3.2420e-03  0:01:53 1371
   630  3.1512e-03  5.8298e-03  4.6340e-03  8.3571e+02  3.1256e-03  0:01:30 1370
   631  3.0015e-03  5.8840e-03  4.7028e-03  8.3326e+02  2.9756e-03  0:01:12 1369
   632  2.8500e-03  5.9106e-03  4.7597e-03  8.3763e+02  2.8240e-03  0:00:58 1368
   633  2.7419e-03  5.9191e-03  4.8075e-03  8.4749e+02  2.7160e-03  0:00:46 1367
   634  2.6899e-03  5.9029e-03  4.8412e-03  8.5897e+02  2.6647e-03  0:00:37 1366
   635  2.7099e-03  5.8575e-03  4.8604e-03  8.6710e+02  2.6860e-03  0:00:29 1365
   636  2.7874e-03  5.7835e-03  4.8635e-03  8.7279e+02  2.7651e-03  0:00:24 1364
   637  2.9052e-03  5.6893e-03  4.8515e-03  8.8244e+02  2.8847e-03  0:00:19 1363
   638  3.0287e-03  5.5898e-03  4.8213e-03  8.9734e+02  3.0097e-03  0:00:15 1362

  iter  continuity  x-velocity  y-velocity  z-velocity      energy     time/iter
   639  3.1296e-03  5.4956e-03  4.7733e-03  9.1118e+02  3.1119e-03  0:00:12 1361
   640  3.1960e-03  5.4195e-03  4.7138e-03  9.2696e+02  3.1792e-03  0:00:10 1360
   641  3.2007e-03  5.3323e-03  4.6428e-03  9.4242e+02  3.1844e-03  0:00:08 1359
   642  3.1408e-03  5.2415e-03  4.5640e-03  9.5252e+02  3.1245e-03  0:00:06 1358
   643  3.0089e-03  5.1570e-03  4.4791e-03  9.5481e+02  2.9921e-03  0:00:05 1357
   644  2.8293e-03  5.0923e-03  4.3865e-03  9.5450e+02  2.8117e-03  0:00:04 1356
   645  2.6481e-03  5.0440e-03  4.2861e-03  9.5283e+02  2.6294e-03  0:00:03 1355
   646  2.4824e-03  4.9987e-03  4.1747e-03  9.4949e+02  2.4624e-03  0:00:03 1354
   647  2.3426e-03  4.9598e-03  4.0572e-03  9.4177e+02  2.3212e-03  0:04:33 1353
   648  2.2282e-03  4.9221e-03  3.9358e-03  9.4039e+02  2.2054e-03  0:03:38 1352
   649  2.1516e-03  4.8830e-03  3.8149e-03  9.4832e+02  2.1275e-03  0:02:54 1351

  iter  continuity  x-velocity  y-velocity  z-velocity      energy     time/iter
   650  2.0842e-03  4.8270e-03  3.7150e-03  9.6610e+02  2.0586e-03  0:02:19 1350
   651  2.0039e-03  4.7621e-03  3.5737e-03  9.9362e+02  1.9765e-03  0:01:51 1349
   652  1.9135e-03  4.7058e-03  3.4304e-03  1.0303e+03  1.8837e-03  0:01:29 1348
   653  1.8356e-03  4.6482e-03  3.3049e-03  1.0701e+03  1.8033e-03  0:01:11 1347
   654  1.8010e-03  4.5893e-03  3.1925e-03  1.1094e+03  1.7667e-03  0:00:57 1346
   655  1.7930e-03  4.5308e-03  3.0951e-03  1.1464e+03  1.7570e-03  0:00:45 1345
   656  1.8117e-03  4.4854e-03  3.0289e-03  1.1716e+03  1.7745e-03  0:00:36 1344
   657  1.8341e-03  4.4409e-03  2.9452e-03  1.1883e+03  1.7958e-03  0:00:29 1343
   658  1.8584e-03  4.3864e-03  2.8682e-03  1.1990e+03  1.8188e-03  0:00:23 1342
   659  1.8854e-03  4.3291e-03  2.8191e-03  1.2079e+03  1.8445e-03  0:00:19 1341
   660  1.9141e-03  4.2698e-03  2.7891e-03  1.2172e+03  1.8721e-03  0:00:15 1340

  iter  continuity  x-velocity  y-velocity  z-velocity      energy     time/iter
   661  1.9545e-03  4.2089e-03  2.7573e-03  1.2220e+03  1.9115e-03  0:00:12 1339
   662  1.9987e-03  4.1393e-03  2.7497e-03  1.2235e+03  1.9547e-03  0:00:09 1338
   663  2.0409e-03  4.0658e-03  2.7633e-03  1.2164e+03  1.9961e-03  0:00:08 1337
   664  2.0770e-03  3.9930e-03  2.7961e-03  1.2095e+03  2.0311e-03  0:00:06 1336
   665  2.1050e-03  3.9214e-03  2.8456e-03  1.2022e+03  2.0580e-03  0:00:05 1335
   666  2.1237e-03  3.8438e-03  2.9121e-03  1.1912e+03  2.0754e-03  0:00:04 1334
   667  2.1344e-03  3.7650e-03  2.9961e-03  1.1825e+03  2.0847e-03  0:00:03 1333
   668  2.1411e-03  3.6917e-03  3.0956e-03  1.1822e+03  2.0900e-03  0:00:02 1332
   669  2.1458e-03  3.6260e-03  3.2083e-03  1.1914e+03  2.0934e-03  0:00:02 1331
   670  2.1439e-03  3.5664e-03  3.3342e-03  1.2073e+03  2.0902e-03  0:04:28 1330
   671  2.1315e-03  3.5142e-03  3.4704e-03  1.2256e+03  2.0763e-03  0:03:34 1329

  iter  continuity  x-velocity  y-velocity  z-velocity      energy     time/iter
   672  2.1044e-03  3.4653e-03  3.6132e-03  1.2449e+03  2.0476e-03  0:02:51 1328
   673  2.0680e-03  3.4304e-03  3.7597e-03  1.2644e+03  2.0093e-03  0:02:17 1327
   674  2.0301e-03  3.4148e-03  3.9072e-03  1.2805e+03  1.9697e-03  0:01:49 1326
   675  1.9913e-03  3.4106e-03  4.0538e-03  1.2882e+03  1.9294e-03  0:01:27 1325
   676  1.9522e-03  3.4104e-03  4.2006e-03  1.2899e+03  1.8889e-03  0:01:10 1324
   677  1.9155e-03  3.4089e-03  4.3434e-03  1.2935e+03  1.8510e-03  0:00:56 1323
   678  1.8754e-03  3.4069e-03  4.4614e-03  1.2850e+03  1.8097e-03  0:00:45 1322
   679  1.8324e-03  3.4195e-03  4.5780e-03  1.2710e+03  1.7655e-03  0:00:36 1321
   680  1.7808e-03  3.4417e-03  4.6878e-03  1.2569e+03  1.7125e-03  0:00:29 1320
   681  1.7227e-03  3.4737e-03  4.7865e-03  1.2406e+03  1.6527e-03  0:00:23 1319
   682  1.6621e-03  3.5155e-03  4.8728e-03  1.2276e+03  1.5904e-03  0:00:18 1318

  iter  continuity  x-velocity  y-velocity  z-velocity      energy     time/iter
   683  1.6078e-03  3.5647e-03  4.9461e-03  1.2203e+03  1.5345e-03  0:00:15 1317
   684  1.5609e-03  3.6205e-03  5.0044e-03  1.2151e+03  1.4864e-03  0:00:12 1316
   685  1.5169e-03  3.6801e-03  5.0484e-03  1.2112e+03  1.4413e-03  0:00:09 1315
   686  1.4769e-03  3.7439e-03  5.0796e-03  1.2114e+03  1.4003e-03  0:00:07 1314
   687  1.4389e-03  3.8084e-03  5.0987e-03  1.2149e+03  1.3613e-03  0:00:06 1313
   688  1.4003e-03  3.8720e-03  5.1030e-03  1.2208e+03  1.3216e-03  0:04:27 1312
   689  1.3689e-03  3.9325e-03  5.0933e-03  1.2303e+03  1.2894e-03  0:03:34 1311
   690  1.3435e-03  3.9891e-03  5.0731e-03  1.2430e+03  1.2635e-03  0:02:51 1310
   691  1.3280e-03  4.0393e-03  5.0428e-03  1.2456e+03  1.2479e-03  0:02:16 1309
   692  1.3190e-03  4.0822e-03  5.0032e-03  1.2447e+03  1.2391e-03  0:01:49 1308
   693  1.3180e-03  4.1171e-03  4.9554e-03  1.2506e+03  1.2387e-03  0:01:27 1307

  iter  continuity  x-velocity  y-velocity  z-velocity      energy     time/iter
   694  1.3239e-03  4.1434e-03  4.9007e-03  1.2583e+03  1.2456e-03  0:01:10 1306
   695  1.3310e-03  4.1605e-03  4.8408e-03  1.2642e+03  1.2535e-03  0:00:56 1305
   696  1.3386e-03  4.1688e-03  4.7766e-03  1.2699e+03  1.2619e-03  0:00:45 1304
   697  1.3431e-03  4.1686e-03  4.7093e-03  1.2726e+03  1.2667e-03  0:00:36 1303
   698  1.3480e-03  4.1601e-03  4.6407e-03  1.2741e+03  1.2720e-03  0:00:28 1302
   699  1.3560e-03  4.1442e-03  4.5720e-03  1.2761e+03  1.2805e-03  0:00:23 1301
   700  1.3664e-03  4.1223e-03  4.5051e-03  1.2768e+03  1.2914e-03  0:00:18 1300
   701  1.3764e-03  4.0950e-03  4.4408e-03  1.2726e+03  1.3018e-03  0:00:15 1299
   702  1.3865e-03  4.0617e-03  4.3792e-03  1.2644e+03  1.3122e-03  0:00:12 1298
   703  1.3962e-03  4.0242e-03  4.3214e-03  1.2518e+03  1.3222e-03  0:00:09 1297
   704  1.4036e-03  3.9832e-03  4.2687e-03  1.2359e+03  1.3297e-03  0:00:07 1296

  iter  continuity  x-velocity  y-velocity  z-velocity      energy     time/iter
   705  1.4083e-03  3.9399e-03  4.2218e-03  1.2175e+03  1.3344e-03  0:00:06 1295
   706  1.4119e-03  3.8956e-03  4.1813e-03  1.1982e+03  1.3378e-03  0:00:05 1294
   707  1.4152e-03  3.8514e-03  4.1472e-03  1.1785e+03  1.3409e-03  0:00:04 1293
   708  1.4196e-03  3.8081e-03  4.1197e-03  1.1595e+03  1.3452e-03  0:00:03 1292
   709  1.4256e-03  3.7664e-03  4.0986e-03  1.1430e+03  1.3512e-03  0:00:02 1291
   710  1.4327e-03  3.7271e-03  4.0839e-03  1.1292e+03  1.3585e-03  0:04:20 1290
   711  1.4407e-03  3.6907e-03  4.0751e-03  1.1182e+03  1.3667e-03  0:03:28 1289
   712  1.4499e-03  3.6577e-03  4.0717e-03  1.1096e+03  1.3762e-03  0:02:46 1288
   713  1.4590e-03  3.6283e-03  4.0733e-03  1.1011e+03  1.3856e-03  0:02:13 1287
   714  1.4673e-03  3.6025e-03  4.0792e-03  1.0903e+03  1.3944e-03  0:01:46 1286
   715  1.4733e-03  3.5804e-03  4.0886e-03  1.0748e+03  1.4006e-03  0:01:25 1285

  iter  continuity  x-velocity  y-velocity  z-velocity      energy     time/iter
   716  1.4749e-03  3.5620e-03  4.1009e-03  1.0566e+03  1.4024e-03  0:01:08 1284
   717  1.4748e-03  3.5473e-03  4.1153e-03  1.0376e+03  1.4024e-03  0:00:54 1283
   718  1.4719e-03  3.5362e-03  4.1311e-03  1.0180e+03  1.3996e-03  0:00:43 1282
   719  1.4656e-03  3.5284e-03  4.1475e-03  9.9710e+02  1.3933e-03  0:00:35 1281
   720  1.4578e-03  3.5237e-03  4.1638e-03  9.7690e+02  1.3854e-03  0:00:28 1280
   721  1.4489e-03  3.5216e-03  4.1795e-03  9.5755e+02  1.3763e-03  0:00:22 1279
   722  1.4401e-03  3.5216e-03  4.1939e-03  9.4023e+02  1.3675e-03  0:00:18 1278
   723  1.4326e-03  3.5231e-03  4.2067e-03  9.2527e+02  1.3601e-03  0:00:14 1277
   724  1.4264e-03  3.5256e-03  4.2175e-03  9.1233e+02  1.3541e-03  0:00:11 1276
   725  1.4220e-03  3.5288e-03  4.2261e-03  9.0096e+02  1.3500e-03  0:00:09 1275
   726  1.4180e-03  3.5319e-03  4.2323e-03  8.9089e+02  1.3463e-03  0:00:07 1274

  iter  continuity  x-velocity  y-velocity  z-velocity      energy     time/iter
   727  1.4140e-03  3.5345e-03  4.2361e-03  8.8107e+02  1.3426e-03  0:00:06 1273
   728  1.4109e-03  3.5360e-03  4.2375e-03  8.7081e+02  1.3398e-03  0:00:05 1272
   729  1.4080e-03  3.5361e-03  4.2366e-03  8.6128e+02  1.3373e-03  0:00:04 1271
   730  1.4055e-03  3.5343e-03  4.2335e-03  8.5145e+02  1.3352e-03  0:00:03 1270
   731  1.4033e-03  3.5304e-03  4.2286e-03  8.4160e+02  1.3332e-03  0:04:16 1269
   732  1.4006e-03  3.5244e-03  4.2220e-03  8.3016e+02  1.3307e-03  0:03:25 1268
   733  1.3971e-03  3.5165e-03  4.2141e-03  8.1683e+02  1.3273e-03  0:02:44 1267
   734  1.3924e-03  3.5068e-03  4.2051e-03  8.0267e+02  1.3226e-03  0:02:11 1266
   735  1.3867e-03  3.4956e-03  4.1953e-03  7.8797e+02  1.3168e-03  0:01:45 1265
   736  1.3805e-03  3.4833e-03  4.1851e-03  7.7366e+02  1.3103e-03  0:01:24 1264
   737  1.3747e-03  3.4700e-03  4.1748e-03  7.5894e+02  1.3042e-03  0:01:07 1263

  iter  continuity  x-velocity  y-velocity  z-velocity      energy     time/iter
   738  1.3694e-03  3.4560e-03  4.1646e-03  7.4380e+02  1.2986e-03  0:00:53 1262
   739  1.3660e-03  3.4417e-03  4.1548e-03  7.2897e+02  1.2949e-03  0:00:43 1261
   740  1.3640e-03  3.4272e-03  4.1456e-03  7.1446e+02  1.2925e-03  0:00:34 1260
   741  1.3627e-03  3.4129e-03  4.1374e-03  6.9987e+02  1.2909e-03  0:00:27 1259
   742  1.3614e-03  3.3986e-03  4.1303e-03  6.8544e+02  1.2892e-03  0:00:22 1258
   743  1.3600e-03  3.3850e-03  4.1246e-03  6.7143e+02  1.2873e-03  0:00:17 1257
   744  1.3575e-03  3.3721e-03  4.1202e-03  6.5777e+02  1.2842e-03  0:00:14 1256
   745  1.3551e-03  3.3596e-03  4.1173e-03  6.4502e+02  1.2812e-03  0:00:11 1255
   746  1.3532e-03  3.3477e-03  4.1158e-03  6.3365e+02  1.2786e-03  0:00:09 1254
   747  1.3530e-03  3.3362e-03  4.1159e-03  6.2417e+02  1.2778e-03  0:00:07 1253
   748  1.3540e-03  3.3253e-03  4.1176e-03  6.1649e+02  1.2784e-03  0:00:06 1252

  iter  continuity  x-velocity  y-velocity  z-velocity      energy     time/iter
   749  1.3548e-03  3.3152e-03  4.1209e-03  6.0983e+02  1.2786e-03  0:00:05 1251
   750  1.3538e-03  3.3063e-03  4.1261e-03  6.0396e+02  1.2770e-03  0:00:04 1250
   751  1.3508e-03  3.2991e-03  4.1330e-03  5.9825e+02  1.2733e-03  0:00:03 1249
   752  1.3462e-03  3.2940e-03  4.1416e-03  5.9220e+02  1.2680e-03  0:00:02 1248
   753  1.3406e-03  3.2915e-03  4.1517e-03  5.8562e+02  1.2616e-03  0:04:11 1247
   754  1.3382e-03  3.2919e-03  4.1633e-03  5.8020e+02  1.2586e-03  0:03:21 1246
   755  1.3395e-03  3.2953e-03  4.1761e-03  5.7523e+02  1.2597e-03  0:02:41 1245
   756  1.3443e-03  3.3021e-03  4.1902e-03  5.7061e+02  1.2645e-03  0:02:08 1244
   757  1.3485e-03  3.3121e-03  4.2052e-03  5.6496e+02  1.2689e-03  0:01:43 1243
   758  1.3508e-03  3.3251e-03  4.2208e-03  5.5803e+02  1.2712e-03  0:01:22 1242
   759  1.3497e-03  3.3406e-03  4.2368e-03  5.5161e+02  1.2701e-03  0:01:06 1241

  iter  continuity  x-velocity  y-velocity  z-velocity      energy     time/iter
   760  1.3409e-03  3.3580e-03  4.2527e-03  5.4367e+02  1.2607e-03  0:00:52 1240
   761  1.3294e-03  3.3756e-03  4.2682e-03  5.3553e+02  1.2488e-03  0:00:42 1239
   762  1.3206e-03  3.3928e-03  4.2831e-03  5.3031e+02  1.2397e-03  0:00:33 1238
   763  1.3190e-03  3.4090e-03  4.2971e-03  5.3063e+02  1.2383e-03  0:00:27 1237
   764  1.3237e-03  3.4240e-03  4.3100e-03  5.3657e+02  1.2437e-03  0:00:21 1236
   765  1.3269e-03  3.4370e-03  4.3216e-03  5.4013e+02  1.2476e-03  0:00:17 1235
   766  1.3262e-03  3.4477e-03  4.3321e-03  5.4174e+02  1.2474e-03  0:00:14 1234
   767  1.3161e-03  3.4565e-03  4.3412e-03  5.4064e+02  1.2373e-03  0:00:11 1233
   768  1.2939e-03  3.4636e-03  4.3489e-03  5.3769e+02  1.2143e-03  0:00:09 1232
   769  1.2631e-03  3.4694e-03  4.3548e-03  5.3088e+02  1.1822e-03  0:00:07 1231
   770  1.2373e-03  3.4738e-03  4.3591e-03  5.2458e+02  1.1553e-03  0:00:06 1230

  iter  continuity  x-velocity  y-velocity  z-velocity      energy     time/iter
   771  1.2250e-03  3.4777e-03  4.3617e-03  5.1968e+02  1.1430e-03  0:00:04 1229
   772  1.2281e-03  3.4814e-03  4.3628e-03  5.1448e+02  1.1470e-03  0:00:04 1228
   773  1.2378e-03  3.4850e-03  4.3626e-03  5.0853e+02  1.1581e-03  0:00:03 1227
   774  1.2431e-03  3.4888e-03  4.3612e-03  5.0020e+02  1.1645e-03  0:00:02 1226
   775  1.2389e-03  3.4925e-03  4.3585e-03  4.8924e+02  1.1607e-03  0:04:07 1225
   776  1.2248e-03  3.4966e-03  4.3544e-03  4.7960e+02  1.1463e-03  0:03:17 1224
   777  1.2033e-03  3.5003e-03  4.3489e-03  4.6955e+02  1.1239e-03  0:02:38 1223
   778  1.1793e-03  3.5032e-03  4.3417e-03  4.6139e+02  1.0989e-03  0:02:06 1222
   779  1.1601e-03  3.5046e-03  4.3330e-03  4.5790e+02  1.0788e-03  0:01:41 1221
   780  1.1485e-03  3.5041e-03  4.3229e-03  4.5809e+02  1.0669e-03  0:01:21 1220
   781  1.1458e-03  3.5017e-03  4.3114e-03  4.5954e+02  1.0645e-03  0:01:04 1219

  iter  continuity  x-velocity  y-velocity  z-velocity      energy     time/iter
   782  1.1445e-03  3.4978e-03  4.2986e-03  4.5928e+02  1.0634e-03  0:00:51 1218
   783  1.1434e-03  3.4923e-03  4.2845e-03  4.5828e+02  1.0626e-03  0:00:41 1217
   784  1.1394e-03  3.4857e-03  4.2694e-03  4.5702e+02  1.0587e-03  0:00:33 1216
   785  1.1348e-03  3.4781e-03  4.2536e-03  4.5641e+02  1.0539e-03  0:00:26 1215
   786  1.1327e-03  3.4698e-03  4.2372e-03  4.5507e+02  1.0519e-03  0:00:21 1214
   787  1.1423e-03  3.4617e-03  4.2203e-03  4.5349e+02  1.0624e-03  0:00:17 1213
   788  1.1609e-03  3.4543e-03  4.2033e-03  4.5287e+02  1.0825e-03  0:00:13 1212
   789  1.1725e-03  3.4475e-03  4.1865e-03  4.5337e+02  1.0950e-03  0:00:11 1211
   790  1.1855e-03  3.4421e-03  4.1697e-03  4.5633e+02  1.1090e-03  0:00:09 1210
   791  1.1820e-03  3.4377e-03  4.1531e-03  4.5726e+02  1.1054e-03  0:00:07 1209
   792  1.1643e-03  3.4336e-03  4.1366e-03  4.5605e+02  1.0866e-03  0:00:05 1208

  iter  continuity  x-velocity  y-velocity  z-velocity      energy     time/iter
   793  1.1450e-03  3.4293e-03  4.1203e-03  4.5599e+02  1.0660e-03  0:00:04 1207
   794  1.1268e-03  3.4248e-03  4.1042e-03  4.5713e+02  1.0464e-03  0:00:04 1206
   795  1.1194e-03  3.4197e-03  4.0883e-03  4.6205e+02  1.0387e-03  0:00:03 1205
   796  1.1174e-03  3.4131e-03  4.0726e-03  4.6622e+02  1.0366e-03  0:00:02 1204
   797  1.1148e-03  3.4045e-03  4.0571e-03  4.6786e+02  1.0340e-03  0:00:02 1203
   798  1.1102e-03  3.3940e-03  4.0421e-03  4.6719e+02  1.0292e-03  0:04:02 1202
   799  1.1026e-03  3.3818e-03  4.0278e-03  4.6479e+02  1.0212e-03  0:03:13 1201
   800  1.0926e-03  3.3683e-03  4.0143e-03  4.6177e+02  1.0106e-03  0:02:35 1200
   801  1.0806e-03  3.3542e-03  4.0018e-03  4.5825e+02  9.9790e-04  0:02:04 1199
   802  1.0689e-03  3.3402e-03  3.9905e-03  4.5487e+02  9.8563e-04  0:01:39 1198
   803  1.0567e-03  3.3265e-03  3.9806e-03  4.5121e+02  9.7267e-04  0:01:19 1197

  iter  continuity  x-velocity  y-velocity  z-velocity      energy     time/iter
   804  1.0450e-03  3.3134e-03  3.9721e-03  4.4715e+02  9.6044e-04  0:01:03 1196
   805  1.0328e-03  3.3010e-03  3.9652e-03  4.4275e+02  9.4757e-04  0:00:50 1195
   806  1.0203e-03  3.2895e-03  3.9599e-03  4.3870e+02  9.3450e-04  0:00:40 1194
   807  1.0085e-03  3.2789e-03  3.9561e-03  4.3561e+02  9.2213e-04  0:00:32 1193
   808  9.9707e-04  3.2691e-03  3.9538e-03  4.3359e+02  9.1022e-04  0:00:26 1192
   809  9.8736e-04  3.2604e-03  3.9529e-03  4.3229e+02  9.0023e-04  0:00:21 1191
[...]
  1791  9.7984e-04  4.0992e-03  3.4527e-03  3.5554e+02  9.2030e-04  0:00:11  209
  1792  9.7331e-04  4.1000e-03  3.4662e-03  3.5035e+02  9.1287e-04  0:00:09  208
  1793  9.6657e-04  4.1001e-03  3.4801e-03  3.4407e+02  9.0524e-04  0:00:07  207

  iter  continuity  x-velocity  y-velocity  z-velocity      energy     time/iter
  1794  9.5888e-04  4.1002e-03  3.4941e-03  3.3661e+02  8.9657e-04  0:00:06  206
  1795  9.4953e-04  4.0990e-03  3.5083e-03  3.2876e+02  8.8614e-04  0:00:04  205
  1796  9.3825e-04  4.0958e-03  3.5228e-03  3.2145e+02  8.7363e-04  0:00:04  204
  1797  9.2875e-04  4.0914e-03  3.5373e-03  3.1476e+02  8.6302e-04  0:00:03  203
  1798  9.2216e-04  4.0883e-03  3.5521e-03  3.0695e+02  8.5555e-04  0:00:02  202
  1799  9.1727e-04  4.0848e-03  3.5668e-03  2.9874e+02  8.4992e-04  0:00:02  201
  1800  9.1254e-04  4.0798e-03  3.5814e-03  2.9100e+02  8.4446e-04  0:00:01  200
  1801  9.0621e-04  4.0753e-03  3.5962e-03  2.8329e+02  8.3728e-04  0:00:01  199
  1802  9.0001e-04  4.0691e-03  3.6110e-03  2.7550e+02  8.3025e-04  0:00:01  198
  1803  8.9819e-04  4.0638e-03  3.6258e-03  2.6768e+02  8.2797e-04  0:00:01  197
  1804  8.9723e-04  4.0570e-03  3.6406e-03  2.6014e+02  8.2664e-04  0:00:01  196

  iter  continuity  x-velocity  y-velocity  z-velocity      energy     time/iter
  1805  8.9863e-04  4.0501e-03  3.6554e-03  2.5295e+02  8.2787e-04  0:00:00  195
  1806  8.9725e-04  4.0451e-03  3.6701e-03  2.4582e+02  8.2609e-04  0:00:00  194
  1807  8.9336e-04  4.0392e-03  3.6846e-03  2.3927e+02  8.2158e-04  0:00:00  193
  1808  8.8782e-04  4.0322e-03  3.6989e-03  2.3363e+02  8.1527e-04  0:00:39  192
  1809  8.8378e-04  4.0240e-03  3.7128e-03  2.2877e+02  8.1060e-04  0:00:31  191
  1810  8.7972e-04  4.0172e-03  3.7264e-03  2.2434e+02  8.0590e-04  0:00:24  190
  1811  8.7574e-04  4.0116e-03  3.7397e-03  2.2027e+02  8.0128e-04  0:00:19  189
  1812  8.7068e-04  4.0054e-03  3.7527e-03  2.1673e+02  7.9548e-04  0:00:15  188
  1813  8.6560e-04  3.9998e-03  3.7653e-03  2.1344e+02  7.8964e-04  0:00:12  187
  1814  8.6094e-04  3.9945e-03  3.7775e-03  2.1019e+02  7.8425e-04  0:00:10  186
  1815  8.5549e-04  3.9888e-03  3.7894e-03  2.0690e+02  7.7798e-04  0:00:08  185

  iter  continuity  x-velocity  y-velocity  z-velocity      energy     time/iter
  1816  8.5126e-04  3.9843e-03  3.8010e-03  2.0360e+02  7.7306e-04  0:00:06  184
  1817  8.4707e-04  3.9791e-03  3.8121e-03  2.0012e+02  7.6816e-04  0:00:05  183
  1818  8.4303e-04  3.9735e-03  3.8231e-03  1.9653e+02  7.6343e-04  0:00:04  182
  1819  8.3996e-04  3.9684e-03  3.8339e-03  1.9292e+02  7.5977e-04  0:00:03  181
  1820  8.3696e-04  3.9636e-03  3.8445e-03  1.8940e+02  7.5618e-04  0:00:02  180
  1821  8.3437e-04  3.9591e-03  3.8548e-03  1.8586e+02  7.5306e-04  0:00:02  179
  1822  8.3196e-04  3.9549e-03  3.8649e-03  1.8238e+02  7.5014e-04  0:00:02  178
  1823  8.3001e-04  3.9509e-03  3.8747e-03  1.7895e+02  7.4773e-04  0:00:01  177
  1824  8.2856e-04  3.9467e-03  3.8843e-03  1.7553e+02  7.4589e-04  0:00:01  176
  1825  8.2746e-04  3.9392e-03  3.8935e-03  1.7210e+02  7.4444e-04  0:00:01  175
  1826  8.2574e-04  3.9324e-03  3.9024e-03  1.6870e+02  7.4231e-04  0:00:01  174

  iter  continuity  x-velocity  y-velocity  z-velocity      energy     time/iter
  1827  8.2429e-04  3.9268e-03  3.9109e-03  1.6541e+02  7.4050e-04  0:00:01  173
  1828  8.2271e-04  3.9215e-03  3.9191e-03  1.6220e+02  7.3856e-04  0:00:00  172
  1829  8.2135e-04  3.9151e-03  3.9270e-03  1.5919e+02  7.3689e-04  0:00:00  171
  1830  8.1950e-04  3.9064e-03  3.9345e-03  1.5639e+02  7.3468e-04  0:00:00  170
  1831  8.1721e-04  3.8981e-03  3.9416e-03  1.5375e+02  7.3200e-04  0:00:00  169
  1832  8.1405e-04  3.8890e-03  3.9484e-03  1.5132e+02  7.2836e-04  0:00:34  168
  1833  8.1129e-04  3.8813e-03  3.9547e-03  1.4905e+02  7.2519e-04  0:00:27  167
  1834  8.0985e-04  3.8751e-03  3.9607e-03  1.4687e+02  7.2352e-04  0:00:21  166
  1835  8.0838e-04  3.8694e-03  3.9664e-03  1.4483e+02  7.2184e-04  0:00:17  165
  1836  8.0639e-04  3.8641e-03  3.9717e-03  1.4291e+02  7.1959e-04  0:00:13  164
  1837  8.0432e-04  3.8581e-03  3.9767e-03  1.4109e+02  7.1729e-04  0:00:11  163

  iter  continuity  x-velocity  y-velocity  z-velocity      energy     time/iter
  1838  7.9896e-04  3.8479e-03  3.9812e-03  1.3932e+02  7.1130e-04  0:00:09  162
  1839  7.9615e-04  3.8366e-03  3.9853e-03  1.3752e+02  7.0820e-04  0:00:07  161
  1840  7.9292e-04  3.8263e-03  3.9891e-03  1.3565e+02  7.0464e-04  0:00:05  160
  1841  7.8944e-04  3.8159e-03  3.9931e-03  1.3360e+02  7.0084e-04  0:00:04  159
  1842  7.8600e-04  3.8059e-03  3.9961e-03  1.3138e+02  6.9708e-04  0:00:03  158
  1843  7.8287e-04  3.7962e-03  3.9986e-03  1.2900e+02  6.9368e-04  0:00:03  157
  1844  7.7989e-04  3.7864e-03  4.0008e-03  1.2653e+02  6.9048e-04  0:00:02  156
  1845  7.7736e-04  3.7769e-03  4.0027e-03  1.2404e+02  6.8779e-04  0:00:02  155
  1846  7.7507e-04  3.7678e-03  4.0044e-03  1.2160e+02  6.8542e-04  0:00:01  154
  1847  7.7245e-04  3.7592e-03  4.0059e-03  1.1923e+02  6.8268e-04  0:00:01  153
  1848  7.6854e-04  3.7489e-03  4.0072e-03  1.1697e+02  6.7853e-04  0:00:01  152

  iter  continuity  x-velocity  y-velocity  z-velocity      energy     time/iter
  1849  7.6474e-04  3.7388e-03  4.0082e-03  1.1476e+02  6.7451e-04  0:00:01  151
  1850  7.6149e-04  3.7296e-03  4.0088e-03  1.1265e+02  6.7115e-04  0:00:01  150
  1851  7.5812e-04  3.7210e-03  4.0092e-03  1.1061e+02  6.6767e-04  0:00:00  149
  1852  7.5461e-04  3.7132e-03  4.0094e-03  1.0857e+02  6.6406e-04  0:00:00  148
  1853  7.5116e-04  3.7058e-03  4.0092e-03  1.0654e+02  6.6053e-04  0:00:00  147
  1854  7.4779e-04  3.6985e-03  4.0088e-03  1.0455e+02  6.5714e-04  0:00:00  146
  1855  7.4448e-04  3.6914e-03  4.0080e-03  1.0259e+02  6.5382e-04  0:00:00  145
  1856  7.4103e-04  3.6846e-03  4.0069e-03  1.0065e+02  6.5038e-04  0:00:29  144
  1857  7.3742e-04  3.6782e-03  4.0055e-03  9.8731e+01  6.4679e-04  0:00:23  143
  1858  7.3372e-04  3.6722e-03  4.0037e-03  9.6816e+01  6.4312e-04  0:00:18  142
  1859  7.2994e-04  3.6666e-03  4.0015e-03  9.4908e+01  6.3939e-04  0:00:15  141

  iter  continuity  x-velocity  y-velocity  z-velocity      energy     time/iter
  1860  7.2610e-04  3.6613e-03  3.9989e-03  9.2944e+01  6.3562e-04  0:00:12  140
  1861  7.2217e-04  3.6562e-03  3.9958e-03  9.0945e+01  6.3178e-04  0:00:09  139
  1862  7.1813e-04  3.6513e-03  3.9922e-03  8.8925e+01  6.2785e-04  0:00:07  138
  1863  7.1393e-04  3.6465e-03  3.9880e-03  8.6889e+01  6.2376e-04  0:00:06  137
  1864  7.0941e-04  3.6418e-03  3.9834e-03  8.4836e+01  6.1934e-04  0:00:05  136
  1865  7.0494e-04  3.6375e-03  3.9781e-03  8.2758e+01  6.1501e-04  0:00:04  135
  1866  7.0029e-04  3.6335e-03  3.9722e-03  8.0706e+01  6.1050e-04  0:00:03  134
  1867  6.9537e-04  3.6291e-03  3.9657e-03  7.8731e+01  6.0571e-04  0:00:02  133
  1868  6.9018e-04  3.6243e-03  3.9585e-03  7.6814e+01  6.0066e-04  0:00:02  132
  1869  6.8512e-04  3.6200e-03  3.9506e-03  7.4968e+01  5.9576e-04  0:00:01  131
  1870  6.8007e-04  3.6163e-03  3.9420e-03  7.3211e+01  5.9092e-04  0:00:01  130

  iter  continuity  x-velocity  y-velocity  z-velocity      energy     time/iter
  1871  6.7501e-04  3.6130e-03  3.9326e-03  7.1507e+01  5.8610e-04  0:00:01  129
  1872  6.6996e-04  3.6100e-03  3.9224e-03  6.9813e+01  5.8130e-04  0:00:01  128
  1873  6.6490e-04  3.6072e-03  3.9113e-03  6.8154e+01  5.7652e-04  0:00:01  127
  1874  6.5961e-04  3.6043e-03  3.8997e-03  6.6543e+01  5.7152e-04  0:00:00  126
  1875  6.5410e-04  3.6013e-03  3.8874e-03  6.4975e+01  5.6629e-04  0:00:00  125
  1876  6.4848e-04  3.5982e-03  3.8743e-03  6.3462e+01  5.6095e-04  0:00:00  124
  1877  6.4304e-04  3.5952e-03  3.8603e-03  6.1988e+01  5.5584e-04  0:00:25  123
  1878  6.3740e-04  3.5920e-03  3.8455e-03  6.0531e+01  5.5053e-04  0:00:20  122
  1879  6.3155e-04  3.5883e-03  3.8298e-03  5.9089e+01  5.4498e-04  0:00:16  121
  1880  6.2649e-04  3.5852e-03  3.8133e-03  5.7735e+01  5.4036e-04  0:00:12  120
  1881  6.2121e-04  3.5820e-03  3.7960e-03  5.6471e+01  5.3551e-04  0:00:10  119

  iter  continuity  x-velocity  y-velocity  z-velocity      energy     time/iter
  1882  6.1536e-04  3.5782e-03  3.7780e-03  5.5262e+01  5.3002e-04  0:00:08  118
  1883  6.0934e-04  3.5739e-03  3.7593e-03  5.4107e+01  5.2433e-04  0:00:06  117
  1884  6.0343e-04  3.5693e-03  3.7399e-03  5.2994e+01  5.1880e-04  0:00:05  116
  1885  5.9770e-04  3.5645e-03  3.7197e-03  5.1900e+01  5.1348e-04  0:00:04  115
  1886  5.9209e-04  3.5593e-03  3.6990e-03  5.0816e+01  5.0831e-04  0:00:03  114
  1887  5.8645e-04  3.5537e-03  3.6777e-03  4.9743e+01  5.0312e-04  0:00:02  113
  1888  5.8079e-04  3.5478e-03  3.6560e-03  4.8688e+01  4.9791e-04  0:00:02  112
  1889  5.7525e-04  3.5416e-03  3.6337e-03  4.7599e+01  4.9286e-04  0:00:02  111
  1890  5.6977e-04  3.5351e-03  3.6109e-03  4.6548e+01  4.8789e-04  0:00:01  110
  1891  5.6436e-04  3.5284e-03  3.5877e-03  4.5543e+01  4.8300e-04  0:00:01  109
  1892  5.5889e-04  3.5213e-03  3.5642e-03  4.4552e+01  4.7807e-04  0:00:01  108

  iter  continuity  x-velocity  y-velocity  z-velocity      energy     time/iter
  1893  5.5339e-04  3.5140e-03  3.5403e-03  4.3584e+01  4.7311e-04  0:00:01  107
  1894  5.4778e-04  3.5064e-03  3.5161e-03  4.2632e+01  4.6804e-04  0:00:00  106
  1895  5.4202e-04  3.4986e-03  3.4917e-03  4.1692e+01  4.6280e-04  0:00:00  105
  1896  5.3628e-04  3.4905e-03  3.4670e-03  4.0763e+01  4.5760e-04  0:00:00  104
  1897  5.3071e-04  3.4823e-03  3.4420e-03  3.9854e+01  4.5262e-04  0:00:00  103
  1898  5.2549e-04  3.4740e-03  3.4169e-03  3.8967e+01  4.4805e-04  0:00:00  102
  1899  5.2009e-04  3.4653e-03  3.3915e-03  3.8087e+01  4.4330e-04  0:00:00  101
  1900  5.1441e-04  3.4562e-03  3.3659e-03  3.7198e+01  4.3825e-04  0:00:20  100
  1901  5.0989e-04  3.4476e-03  3.3402e-03  3.6272e+01  4.3457e-04  0:00:16   99
  1902  5.0606e-04  3.4398e-03  3.3143e-03  3.5260e+01  4.3173e-04  0:00:13   98
  1903  5.0038e-04  3.4308e-03  3.2881e-03  3.4191e+01  4.2672e-04  0:00:10   97

  iter  continuity  x-velocity  y-velocity  z-velocity      energy     time/iter
  1904  4.9380e-04  3.4220e-03  3.2614e-03  3.3128e+01  4.2068e-04  0:00:08   96
  1905  4.8696e-04  3.4129e-03  3.2343e-03  3.2115e+01  4.1432e-04  0:00:06   95
  1906  4.7967e-04  3.4037e-03  3.2071e-03  3.1185e+01  4.0746e-04  0:00:05   94
  1907  4.7237e-04  3.3940e-03  3.1798e-03  3.0316e+01  4.0061e-04  0:00:04   93
  1908  4.6533e-04  3.3846e-03  3.1525e-03  2.9468e+01  3.9408e-04  0:00:03   92
  1909  4.5880e-04  3.3751e-03  3.1250e-03  2.8619e+01  3.8817e-04  0:00:02   91
  1910  4.5247e-04  3.3651e-03  3.0974e-03  2.7774e+01  3.8251e-04  0:00:02   90
  1911  4.4622e-04  3.3548e-03  3.0696e-03  2.6944e+01  3.7697e-04  0:00:02   89
  1912  4.3996e-04  3.3445e-03  3.0415e-03  2.6123e+01  3.7143e-04  0:00:01   88
  1913  4.3363e-04  3.3341e-03  3.0131e-03  2.5319e+01  3.6583e-04  0:00:01   87
  1914  4.2730e-04  3.3239e-03  2.9845e-03  2.4542e+01  3.6023e-04  0:00:01   86

  iter  continuity  x-velocity  y-velocity  z-velocity      energy     time/iter
  1915  4.2146e-04  3.3133e-03  2.9556e-03  2.3790e+01  3.5523e-04  0:00:01   85
  1916  4.1579e-04  3.3021e-03  2.9264e-03  2.3104e+01  3.5044e-04  0:00:00   84
  1917  4.0955e-04  3.2917e-03  2.8969e-03  2.2461e+01  3.4499e-04  0:00:00   83
  1918  4.0305e-04  3.2803e-03  2.8670e-03  2.1837e+01  3.3923e-04  0:00:00   82
  1919  3.9628e-04  3.2678e-03  2.8368e-03  2.1239e+01  3.3316e-04  0:00:00   81
  1920  3.8956e-04  3.2548e-03  2.8062e-03  2.0654e+01  3.2715e-04  0:00:00   80
  1921  3.8294e-04  3.2414e-03  2.7753e-03  2.0084e+01  3.2126e-04  0:00:00   79
  1922  3.7648e-04  3.2277e-03  2.7441e-03  1.9534e+01  3.1558e-04  0:00:00   78
  1923  3.7012e-04  3.2136e-03  2.7126e-03  1.9005e+01  3.0999e-04  0:00:15   77
  1924  3.6382e-04  3.1992e-03  2.6807e-03  1.8495e+01  3.0449e-04  0:00:12   76
  1925  3.5755e-04  3.1847e-03  2.6486e-03  1.8000e+01  2.9902e-04  0:00:10   75

  iter  continuity  x-velocity  y-velocity  z-velocity      energy     time/iter
  1926  3.5134e-04  3.1700e-03  2.6161e-03  1.7523e+01  2.9362e-04  0:00:08   74
  1927  3.4524e-04  3.1551e-03  2.5834e-03  1.7060e+01  2.8835e-04  0:00:06   73
  1928  3.3923e-04  3.1401e-03  2.5505e-03  1.6613e+01  2.8318e-04  0:00:05   72
  1929  3.3329e-04  3.1248e-03  2.5173e-03  1.6178e+01  2.7809e-04  0:00:04   71
  1930  3.2755e-04  3.1094e-03  2.4839e-03  1.5749e+01  2.7324e-04  0:00:03   70
  1931  3.2181e-04  3.0937e-03  2.4501e-03  1.5329e+01  2.6836e-04  0:00:02   69
  1932  3.1575e-04  3.0779e-03  2.4162e-03  1.4915e+01  2.6310e-04  0:00:02   68
  1933  3.0987e-04  3.0618e-03  2.3820e-03  1.4509e+01  2.5805e-04  0:00:01   67
  1934  3.0403e-04  3.0455e-03  2.3476e-03  1.4100e+01  2.5303e-04  0:00:01   66
  1935  2.9873e-04  3.0291e-03  2.3131e-03  1.3688e+01  2.4865e-04  0:00:01   65
  1936  2.9360e-04  3.0126e-03  2.2785e-03  1.3279e+01  2.4446e-04  0:00:01   64

  iter  continuity  x-velocity  y-velocity  z-velocity      energy     time/iter
  1937  2.8850e-04  2.9961e-03  2.2437e-03  1.2874e+01  2.4030e-04  0:00:01   63
  1938  2.8343e-04  2.9793e-03  2.2089e-03  1.2478e+01  2.3617e-04  0:00:00   62
  1939  2.7851e-04  2.9624e-03  2.1741e-03  1.2091e+01  2.3221e-04  0:00:00   61
  1940  2.7388e-04  2.9452e-03  2.1392e-03  1.1700e+01  2.2858e-04  0:00:00   60
  1941  2.6945e-04  2.9278e-03  2.1043e-03  1.1309e+01  2.2519e-04  0:00:00   59
  1942  2.6512e-04  2.9102e-03  2.0695e-03  1.0929e+01  2.2190e-04  0:00:00   58
  1943  2.6014e-04  2.8924e-03  2.0347e-03  1.0564e+01  2.1783e-04  0:00:00   57
  1944  2.5611e-04  2.8745e-03  1.9999e-03  1.0213e+01  2.1487e-04  0:00:00   56
  1945  2.5259e-04  2.8564e-03  1.9652e-03  9.8742e+00  2.1250e-04  0:00:00   55
  1946  2.4852e-04  2.8382e-03  1.9306e-03  9.5512e+00  2.0948e-04  0:00:00   54
  1947  2.4468e-04  2.8199e-03  1.8961e-03  9.2395e+00  2.0670e-04  0:00:11   53

  iter  continuity  x-velocity  y-velocity  z-velocity      energy     time/iter
  1948  2.4108e-04  2.8015e-03  1.8618e-03  8.9383e+00  2.0419e-04  0:00:08   52
  1949  2.3744e-04  2.7831e-03  1.8276e-03  8.6455e+00  2.0162e-04  0:00:07   51
  1950  2.3324e-04  2.7646e-03  1.7935e-03  8.3649e+00  1.9837e-04  0:00:05   50
  1951  2.2816e-04  2.7462e-03  1.7598e-03  8.0943e+00  1.9408e-04  0:00:04   49
  1952  2.2588e-04  2.7278e-03  1.7261e-03  7.8251e+00  1.9304e-04  0:00:03   48
  1953  2.2363e-04  2.7093e-03  1.6926e-03  7.5647e+00  1.9200e-04  0:00:02   47
  1954  2.2093e-04  2.6907e-03  1.6593e-03  7.3163e+00  1.9042e-04  0:00:02   46
  1955  2.1837e-04  2.6722e-03  1.6264e-03  7.0823e+00  1.8899e-04  0:00:02   45
  1956  2.1573e-04  2.6537e-03  1.5938e-03  6.8642e+00  1.8743e-04  0:00:01   44
  1957  2.1296e-04  2.6354e-03  1.5614e-03  6.6587e+00  1.8571e-04  0:00:01   43
  1958  2.1029e-04  2.6171e-03  1.5293e-03  6.4659e+00  1.8406e-04  0:00:01   42

  iter  continuity  x-velocity  y-velocity  z-velocity      energy     time/iter
  1959  2.0771e-04  2.5989e-03  1.4975e-03  6.2868e+00  1.8251e-04  0:00:01   41
  1960  2.0540e-04  2.5808e-03  1.4660e-03  6.1205e+00  1.8123e-04  0:00:00   40
  1961  2.0343e-04  2.5629e-03  1.4349e-03  5.9638e+00  1.8031e-04  0:00:00   39
  1962  2.0167e-04  2.5452e-03  1.4041e-03  5.8085e+00  1.7960e-04  0:00:00   38
  1963  2.0040e-04  2.5278e-03  1.3737e-03  5.6604e+00  1.7940e-04  0:00:00   37
  1964  2.0029e-04  2.5110e-03  1.3436e-03  5.5172e+00  1.8046e-04  0:00:00   36
  1965  2.0088e-04  2.4946e-03  1.3139e-03  5.3726e+00  1.8222e-04  0:00:00   35
  1966  2.0134e-04  2.4773e-03  1.2849e-03  5.2273e+00  1.8380e-04  0:00:07   34
  1967  2.0245e-04  2.4604e-03  1.2561e-03  5.0813e+00  1.8603e-04  0:00:05   33
  1968  2.0346e-04  2.4439e-03  1.2278e-03  4.9367e+00  1.8809e-04  0:00:04   32
  1969  2.0488e-04  2.4280e-03  1.2000e-03  4.8035e+00  1.9056e-04  0:00:03   31

  iter  continuity  x-velocity  y-velocity  z-velocity      energy     time/iter
  1970  2.0751e-04  2.4127e-03  1.1726e-03  4.6752e+00  1.9426e-04  0:00:02   30
  1971  2.1049e-04  2.3978e-03  1.1454e-03  4.5440e+00  1.9827e-04  0:00:02   29
  1972  2.1301e-04  2.3831e-03  1.1184e-03  4.4177e+00  2.0171e-04  0:00:01   28
  1973  2.1591e-04  2.3686e-03  1.0919e-03  4.2989e+00  2.0550e-04  0:00:01   27
  1974  2.1980e-04  2.3544e-03  1.0657e-03  4.1880e+00  2.1026e-04  0:00:01   26
  1975  2.2455e-04  2.3407e-03  1.0400e-03  4.0836e+00  2.1585e-04  0:00:01   25
  1976  2.3003e-04  2.3275e-03  1.0148e-03  3.9871e+00  2.2214e-04  0:00:01   24
  1977  2.3633e-04  2.3149e-03  9.8987e-04  3.8940e+00  2.2920e-04  0:00:00   23
  1978  2.4399e-04  2.3027e-03  9.6532e-04  3.8005e+00  2.3759e-04  0:00:00   22
  1979  2.5236e-04  2.2910e-03  9.4119e-04  3.7110e+00  2.4663e-04  0:00:00   21
  1980  2.6383e-04  2.2798e-03  9.1747e-04  3.6301e+00  2.5876e-04  0:00:00   20

  iter  continuity  x-velocity  y-velocity  z-velocity      energy     time/iter
  1981  2.8119e-04  2.2693e-03  8.9412e-04  3.5540e+00  2.7680e-04  0:00:00   19
  1982  3.0432e-04  2.2598e-03  8.7115e-04  3.4885e+00  3.0057e-04  0:00:00   18
  1983  2.9071e-04  2.2492e-03  8.4886e-04  3.4321e+00  2.8714e-04  0:00:00   17
  1984  2.9991e-04  2.2399e-03  8.2649e-04  3.3900e+00  2.9676e-04  0:00:00   16
  1985  3.1108e-04  2.2309e-03  8.0445e-04  3.3553e+00  3.0830e-04  0:00:00   15
  1986  3.2325e-04  2.2223e-03  7.8293e-04  3.3288e+00  3.2081e-04  0:00:00   14
  1987  3.3820e-04  2.2141e-03  7.6186e-04  3.3114e+00  3.3608e-04  0:00:03   13
  1988  3.5462e-04  2.2065e-03  7.4123e-04  3.3013e+00  3.5277e-04  0:00:02   12
  1989  3.7239e-04  2.1992e-03  7.2111e-04  3.3026e+00  3.7078e-04  0:00:01   11
  1990  3.9193e-04  2.1928e-03  7.0125e-04  3.3168e+00  3.9054e-04  0:00:01   10
  1991  4.1291e-04  2.1870e-03  6.8183e-04  3.3372e+00  4.1171e-04  0:00:01    9

  iter  continuity  x-velocity  y-velocity  z-velocity      energy     time/iter
  1992  4.3566e-04  2.1817e-03  6.6288e-04  3.3611e+00  4.3461e-04  0:00:01    8
  1993  4.6010e-04  2.1770e-03  6.4432e-04  3.3952e+00  4.5918e-04  0:00:00    7
  1994  4.8595e-04  2.1726e-03  6.2639e-04  3.4297e+00  4.8514e-04  0:00:00    6
  1995  5.1326e-04  2.1685e-03  6.0904e-04  3.4633e+00  5.1253e-04  0:00:00    5
  1996  5.4271e-04  2.1651e-03  5.9232e-04  3.4928e+00  5.4204e-04  0:00:00    4
  1997  5.7462e-04  2.1624e-03  5.7621e-04  3.5194e+00  5.7400e-04  0:00:00    3
  1998  6.0861e-04  2.1599e-03  5.6074e-04  3.5336e+00  6.0802e-04  0:00:00    2
  1999  6.1469e-04  2.1584e-03  5.4574e-04  3.5401e+00  6.1414e-04  0:00:00    1
  2000  6.2884e-04  2.1600e-03  5.3202e-04  3.6404e+00  6.2832e-04  0:00:00    0

> 
adjoint/                parallel/               server/
define/                 parametric-study/       solve/
display/                plot/                   surface/
exit                    preferences/            turbo-workflow/
file/                   print-license-usage     views/
mesh/                   report/

> /file/write-case-data project1
Fast-loading "C:\PROGRA~1\ANSYSI~1\v231\fluent\fluent23.1.0\\addons\afd\lib\hdfio.bin"
Done.

Writing to Engs-30669:"C:\Users\kebl7595\Desktop\CFD\Runs\Actual Data\21 degree\project1.cas.h5" in NODE0 mode and compression level 1 ...
       12996 cells,     1 zone  ...
       43722 faces,     8 zones ...
       17864 nodes,     1 zone  ...
  Done.
Done.

Writing to Engs-30669:"C:\Users\kebl7595\Desktop\CFD\Runs\Actual Data\21 degree\project1.dat.h5" in NODE0 mode and compression level 1 ...
  Writing results.
Done.

> /file/export/ascii "./surface.dat" wing te () no pressure mach-number quit no

Writing "./surface.dat"...

Writing information to ascii file ...
Done.


> /plot/plot y "data.dat" no n n pressure-coefficient no n x-coordinate wing ()

> /report/forces/wall-forces y -0.35837 0.93358 0 y "Force"

> /exit

Posting ANSYS Product Improvement Program performance data 
Done.
Auto-Transcript Stop Time:  15:03:20, 20 May 2024 GMT Daylight Time 
Total Transcript Time: 1 Minute 45 Second.
