Auto-Transcript Start Time:  14:26:37, 20 May 2024 GMT Daylight Time 
Current Directory: "C:\Users\kebl7595\Desktop\CFD\Runs\Actual Data\0 degree larger domain"

              Welcome to ANSYS Fluent 2023 R1

              Copyright 1987-2023 ANSYS, Inc. All Rights Reserved.
              Unauthorized use, distribution or duplication is prohibited.
              This product is subject to U.S. laws governing export and re-export.
              For full Legal Notice, see documentation.

Build Time: Nov 28 2022 09:52:02 EST  Build Id: 10208  
 
Connected License Server List:	1055@ansyslic.eng.ox.ac.uk

*********************************************
Info: Your license enables 4-way parallel execution.
For faster simulations, please start the application with the appropriate parallel options.
*********************************************


     --------------------------------------------------------------
     This is an academic version of ANSYS FLUENT. Usage of this product
     license is limited to the terms and conditions specified in your ANSYS
     license form, additional terms section.
     --------------------------------------------------------------
Host spawning Node 0 on machine "Engs-30669" (win64).

------------------------------------------------------------------------------------
ID    Hostname    Core  O.S.         PID    Vendor                                 
------------------------------------------------------------------------------------
n0    Engs-30669  1/32  Windows-x64  44600  13th Gen Intel(R) Core(TM) i9-13900    
host  Engs-30669        Windows-x64  13568  13th Gen Intel(R) Core(TM) i9-13900    

MPI Option Selected: intel
------------------------------------------------------------------------------------

Cleanup script file is C:\\Users\\kebl7595\\Desktop\\CFD\\Runs\\Actual Data\\0 degree larger domain\\cleanup-fluent-Engs-30669-13568.bat
QA Service Message :
QA Services Agreement Enabled. This application is included in the scope of an ANSYS QA Services Agreement.
Posting ANSYS Product Improvement Program startup data
Done.

Reading journal file C:/Users/kebl7595/Desktop/CFD/Runs/Actual Data/0 degree larger domain/project1.jou...

> /file/set-batch-options no no no 

> 
define/                 parametric-study/       solve/
display/                plot/                   surface/
exit                    preferences/            switch-to-meshing-mode
file/                   print-license-usage     turbo-workflow/
mesh/                   report/                 views/
parallel/               server/

> /file/import/cgns/mesh  "./project1.cgns"
Engs-30669 has other FLUENT parallel processes running.                       Process affinity not being set.

Importing "./project1.cgns"

Opening library "C:\\PROGRA~1\\ANSYSI~1\\v231\\fluent\\fluent23.1.0\\vki\\win64\\devtools4.4.6.dll"... done.

Read    20572 nodes
   15006 hexahedral cells, zone  1
   10844 quadrilateral wall faces, zone  2.
   39281 quadrilateral interior faces, zone  3.
     312 quadrilateral interface faces, zone  4.
       6 quadrilateral wall faces, zone  5.

Building...
     mesh
     materials,
     interface,
     domains,
     zones,
	default_exterior-1
	interface-default_subface
	default_interior-1
	default_subface
	default
     parallel,
The automatic selection for flux type has changed to Rhie-Chow: momentum based.

Done.


> 
adjoint/                parallel/               server/
define/                 parametric-study/       solve/
display/                plot/                   surface/
exit                    preferences/            turbo-workflow/
file/                   print-license-usage     views/
mesh/                   report/

> /define/models/solver/density-based-implicit yes

> 
adjoint/                parallel/               server/
define/                 parametric-study/       solve/
display/                plot/                   surface/
exit                    preferences/            turbo-workflow/
file/                   print-license-usage     views/
mesh/                   report/

> /define/models/energy? yes yes invalid command [yes]
yes

> /define/models/viscous/inviscid yes

> 
adjoint/                parallel/               server/
define/                 parametric-study/       solve/
display/                plot/                   surface/
exit                    preferences/            turbo-workflow/
file/                   print-license-usage     views/
mesh/                   report/

> /define/materials/change-create air air air is a fluid
yes 
Density
ideal-gas no data required.

no no no no 

> 
adjoint/                parallel/               server/
define/                 parametric-study/       solve/
display/                plot/                   surface/
exit                    preferences/            turbo-workflow/
file/                   print-license-usage     views/
mesh/                   report/

> /mesh/modify-zones/sep-face-zone-angle 2 90 yes

 5002 faces in contiguous region 0
 228 faces in contiguous region 1
 366 faces in contiguous region 2
 5002 faces in contiguous region 3
 246 faces in contiguous region 4
 Separates zone 2 into 5 zone(s).
Updating new zone information...
   created new zone default_subface:010 from default_subface
   created new zone default_subface:009 from default_subface
   created new zone default_subface:008 from default_subface
   created new zone default_subface:007 from default_subface
done.

> 
adjoint/                parallel/               server/
define/                 parametric-study/       solve/
display/                plot/                   surface/
exit                    preferences/            turbo-workflow/
file/                   print-license-usage     views/
mesh/                   report/

> /define/boundary-conditions/zone-name  5   te

> /define/boundary-conditions/zone-name  7 wing

> /define/boundary-conditions/zone-name  2 sym1

> /define/boundary-conditions/zone-name  9 sym2

> 
adjoint/                parallel/               server/
define/                 parametric-study/       solve/
display/                plot/                   surface/
exit                    preferences/            turbo-workflow/
file/                   print-license-usage     views/
mesh/                   report/

> /define/boundary-conditions/zone-name  8 far1

> /define/boundary-conditions/zone-name 10 far2

> 
adjoint/                parallel/               server/
define/                 parametric-study/       solve/
display/                plot/                   surface/
exit                    preferences/            turbo-workflow/
file/                   print-license-usage     views/
mesh/                   report/

> /define/boundary-conditions/zone-type  8 pressure-far-field

> /define/boundary-conditions/zone-type 10 pressure-far-field

> /define/boundary-conditions/zone-type  2 symmetry

> /define/boundary-conditions/zone-type  9 symmetry

> 
adjoint/                parallel/               server/
define/                 parametric-study/       solve/
display/                plot/                   surface/
exit                    preferences/            turbo-workflow/
file/                   print-license-usage     views/
mesh/                   report/

> /define/boundary-conditions/pressure-far-field (far2 far1)
far1 no 0 no 0.1 no 300 yes no 0.984808 no 0.173648 no 0

> /define/boundary-conditions/pressure-far-field (far2 far1)
far2 no 0 no 0.1 no 300 yes no 0.984808 no 0.173648 no 0

> 
adjoint/                parallel/               server/
define/                 parametric-study/       solve/
display/                plot/                   surface/
exit                    preferences/            turbo-workflow/
file/                   print-license-usage     views/
mesh/                   report/

> /solve/initialize/compute-defaults/pressure-far-field (far2 far1)
far1

> /solve/initialize/initialize-flow

> 
adjoint/                parallel/               server/
define/                 parametric-study/       solve/
display/                plot/                   surface/
exit                    preferences/            turbo-workflow/
file/                   print-license-usage     views/
mesh/                   report/

> /solve/monitors/residual/convergence-criteria 1.e-9 1.e-9 1.e-9 1.e-9 1.e-9

> /solve/iterate 2000

  iter  continuity  x-velocity  y-velocity  z-velocity      energy     time/iter
     1  1.0000e+00  1.0000e+00  1.0000e+00  0.0000e+00  1.0000e+00  0:00:00 1999
     2  5.3915e-01  5.3125e-01  3.6128e-01  1.0000e+00  5.3980e-01  0:00:00 1998
     3  2.8251e-01  2.2244e-01  2.4934e-01  8.6935e-01  2.8275e-01  0:00:00 1997
     4  1.7658e-01  1.6657e-01  1.6128e-01  5.7231e-01  1.7664e-01  0:00:00 1996
     5  1.3592e-01  1.2157e-01  1.0441e-01  5.9753e-01  1.3602e-01  0:00:00 1995
     6  1.1332e-01  8.4843e-02  7.2423e-02  7.3704e-01  1.1345e-01  0:00:00 1994
     7  9.7430e-02  6.0312e-02  5.3617e-02  7.4828e-01  9.7592e-02  0:00:00 1993
     8  8.5379e-02  4.5614e-02  4.1286e-02  6.6801e-01  8.5546e-02  0:00:00 1992
     9  7.6092e-02  3.7150e-02  3.2757e-02  5.8433e-01  7.6254e-02  0:33:11 1991
    10  6.9216e-02  3.2634e-02  2.6797e-02  5.4217e-01  6.9369e-02  0:26:32 1990
    11  6.4071e-02  3.0621e-02  2.2576e-02  5.1416e-01  6.4212e-02  0:21:13 1989

  iter  continuity  x-velocity  y-velocity  z-velocity      energy     time/iter
    12  6.0654e-02  3.0101e-02  1.9521e-02  4.9416e-01  6.0785e-02  0:16:58 1988
    13  5.8633e-02  3.0445e-02  1.7344e-02  4.8858e-01  5.8754e-02  0:13:34 1987
    14  5.7845e-02  3.1369e-02  1.5847e-02  4.9465e-01  5.7957e-02  0:10:51 1986
    15  5.8170e-02  3.2692e-02  1.4783e-02  5.0426e-01  5.8274e-02  0:08:40 1985
    16  5.9286e-02  3.4270e-02  1.4136e-02  5.1830e-01  5.9384e-02  0:06:56 1984
    17  6.0804e-02  3.5916e-02  1.3904e-02  5.2696e-01  6.0894e-02  0:05:33 1983
    18  6.2457e-02  3.7502e-02  1.3946e-02  5.3012e-01  6.2538e-02  0:04:26 1982
    19  6.4121e-02  3.8990e-02  1.4040e-02  5.2781e-01  6.4191e-02  0:03:33 1981
    20  6.5874e-02  4.0270e-02  1.4379e-02  5.2125e-01  6.5933e-02  0:09:26 1980
    21  6.7633e-02  4.1287e-02  1.4743e-02  5.1260e-01  6.7679e-02  0:07:33 1979
    22  6.9259e-02  4.1918e-02  1.5120e-02  5.0501e-01  6.9291e-02  0:06:02 1978

  iter  continuity  x-velocity  y-velocity  z-velocity      energy     time/iter
    23  7.0382e-02  4.2181e-02  1.5534e-02  5.0014e-01  7.0400e-02  0:04:49 1977
    24  7.0798e-02  4.2035e-02  1.6072e-02  4.9778e-01  7.0801e-02  0:03:51 1976
    25  7.0431e-02  4.1467e-02  1.6234e-02  4.9760e-01  7.0417e-02  0:03:05 1975
    26  6.9744e-02  4.0708e-02  1.6331e-02  4.9977e-01  6.9714e-02  0:02:28 1974
    27  6.8699e-02  3.9697e-02  1.6129e-02  5.0114e-01  6.8653e-02  0:01:58 1973
    28  6.7009e-02  3.8385e-02  1.5804e-02  5.0079e-01  6.6950e-02  0:01:35 1972
    29  6.4516e-02  3.6934e-02  1.5377e-02  4.9765e-01  6.4443e-02  0:01:16 1971
    30  6.1288e-02  3.5292e-02  1.4670e-02  4.9044e-01  6.1203e-02  0:01:00 1970
    31  5.7841e-02  3.3882e-02  1.4059e-02  4.7919e-01  5.7746e-02  0:00:48 1969
    32  5.4039e-02  3.2572e-02  1.3433e-02  4.6283e-01  5.3936e-02  0:00:39 1968
    33  4.9824e-02  3.1390e-02  1.3025e-02  4.4309e-01  4.9715e-02  0:00:31 1967

  iter  continuity  x-velocity  y-velocity  z-velocity      energy     time/iter
    34  4.5191e-02  3.0342e-02  1.2824e-02  4.2174e-01  4.5077e-02  0:06:58 1966
    35  4.0600e-02  2.9917e-02  1.3196e-02  3.9680e-01  4.0484e-02  0:05:34 1965
    36  3.5907e-02  2.9909e-02  1.3991e-02  3.7026e-01  3.5790e-02  0:04:27 1964
    37  3.1229e-02  3.0230e-02  1.5117e-02  3.4401e-01  3.1112e-02  0:03:34 1963
    38  2.6593e-02  3.0912e-02  1.6439e-02  3.2261e-01  2.6477e-02  0:02:51 1962
    39  2.2320e-02  3.2025e-02  1.7941e-02  3.0800e-01  2.2207e-02  0:02:17 1961
    40  1.8235e-02  3.3349e-02  1.9507e-02  3.0077e-01  1.8125e-02  0:01:49 1960
    41  1.4621e-02  3.4828e-02  2.0980e-02  3.0036e-01  1.4515e-02  0:01:27 1959
    42  1.1700e-02  3.6337e-02  2.2308e-02  3.0733e-01  1.1601e-02  0:01:10 1958
    43  9.9201e-03  3.7809e-02  2.3452e-02  3.2060e-01  9.8372e-03  0:00:56 1957
    44  9.4277e-03  3.9178e-02  2.4403e-02  3.3970e-01  9.3687e-03  0:00:45 1956

  iter  continuity  x-velocity  y-velocity  z-velocity      energy     time/iter
    45  1.0094e-02  4.0414e-02  2.5137e-02  3.6383e-01  1.0060e-02  0:00:36 1955
    46  1.1614e-02  4.1471e-02  2.5644e-02  3.8990e-01  1.1598e-02  0:00:29 1954
    47  1.3410e-02  4.2324e-02  2.5930e-02  4.1496e-01  1.3404e-02  0:00:23 1953
    48  1.5204e-02  4.2969e-02  2.6002e-02  4.3673e-01  1.5204e-02  0:06:49 1952
    49  1.6904e-02  4.3418e-02  2.5874e-02  4.5414e-01  1.6907e-02  0:05:27 1951
    50  1.8412e-02  4.3659e-02  2.5562e-02  4.6639e-01  1.8416e-02  0:04:21 1950
    51  1.9717e-02  4.3697e-02  2.5086e-02  4.7398e-01  1.9722e-02  0:03:29 1949
    52  2.0825e-02  4.3524e-02  2.4463e-02  4.7595e-01  2.0830e-02  0:02:47 1948
    53  2.1745e-02  4.3161e-02  2.3708e-02  4.7241e-01  2.1749e-02  0:02:14 1947
    54  2.2487e-02  4.2610e-02  2.2830e-02  4.5773e-01  2.2491e-02  0:01:47 1946
    55  2.3056e-02  4.1858e-02  2.1854e-02  4.4144e-01  2.3059e-02  0:01:25 1945

  iter  continuity  x-velocity  y-velocity  z-velocity      energy     time/iter
    56  2.3449e-02  4.0985e-02  2.0782e-02  4.1844e-01  2.3453e-02  0:01:08 1944
    57  2.3666e-02  4.0000e-02  1.9646e-02  3.9029e-01  2.3669e-02  0:00:55 1943
    58  2.3700e-02  3.8737e-02  1.8488e-02  3.6016e-01  2.3702e-02  0:00:44 1942
    59  2.3561e-02  3.7309e-02  1.7312e-02  3.2975e-01  2.3563e-02  0:00:35 1941
    60  2.3256e-02  3.5845e-02  1.6068e-02  3.0204e-01  2.3257e-02  0:00:28 1940
    61  2.2796e-02  3.4327e-02  1.4804e-02  2.7987e-01  2.2797e-02  0:00:22 1939
    62  2.2186e-02  3.2727e-02  1.3553e-02  2.6669e-01  2.2186e-02  0:00:18 1938
    63  2.1405e-02  3.1063e-02  1.2334e-02  2.6356e-01  2.1404e-02  0:06:42 1937
    64  2.0457e-02  2.9365e-02  1.1169e-02  2.7202e-01  2.0455e-02  0:05:21 1936
    65  1.9351e-02  2.7605e-02  1.0054e-02  2.8993e-01  1.9349e-02  0:04:17 1935
    66  1.8121e-02  2.5905e-02  8.9926e-03  3.1400e-01  1.8119e-02  0:03:25 1934

  iter  continuity  x-velocity  y-velocity  z-velocity      energy     time/iter
    67  1.6746e-02  2.4245e-02  8.0454e-03  3.4163e-01  1.6744e-02  0:02:44 1933
    68  1.5264e-02  2.3002e-02  7.1861e-03  3.6964e-01  1.5261e-02  0:02:11 1932
    69  1.3686e-02  2.1930e-02  6.4489e-03  3.9750e-01  1.3682e-02  0:01:45 1931
    70  1.2042e-02  2.1011e-02  5.8905e-03  4.2290e-01  1.2038e-02  0:01:24 1930
    71  1.0355e-02  2.0150e-02  5.5185e-03  4.4271e-01  1.0350e-02  0:01:07 1929
    72  8.6984e-03  1.9425e-02  5.3006e-03  4.5700e-01  8.6934e-03  0:00:54 1928
    73  7.1815e-03  1.9100e-02  5.2071e-03  4.6358e-01  7.1755e-03  0:00:43 1927
    74  5.9569e-03  1.9136e-02  5.2398e-03  4.6479e-01  5.9493e-03  0:00:34 1926
    75  5.2812e-03  1.9432e-02  5.4015e-03  4.6107e-01  5.2714e-03  0:00:27 1925
    76  5.3812e-03  1.9903e-02  5.6428e-03  4.5004e-01  5.3693e-03  0:00:22 1924
    77  6.1885e-03  2.0505e-02  5.9273e-03  4.3384e-01  6.1746e-03  0:00:18 1923

  iter  continuity  x-velocity  y-velocity  z-velocity      energy     time/iter
    78  7.4265e-03  2.1188e-02  6.2208e-03  4.1342e-01  7.4103e-03  0:06:38 1922
    79  8.8621e-03  2.1901e-02  6.5011e-03  3.9080e-01  8.8433e-03  0:05:19 1921
    80  1.0363e-02  2.2578e-02  6.7537e-03  3.7465e-01  1.0340e-02  0:04:15 1920
    81  1.1853e-02  2.3214e-02  6.9647e-03  3.6382e-01  1.1827e-02  0:03:24 1919
    82  1.3287e-02  2.3780e-02  7.1227e-03  3.4338e-01  1.3256e-02  0:02:43 1918
    83  1.4628e-02  2.4267e-02  7.2338e-03  3.2953e-01  1.4592e-02  0:02:10 1917
    84  1.5863e-02  2.4645e-02  7.3020e-03  3.2800e-01  1.5822e-02  0:01:44 1916
    85  1.6972e-02  2.4879e-02  7.3260e-03  3.3685e-01  1.6925e-02  0:01:23 1915
    86  1.7935e-02  2.4957e-02  7.3075e-03  3.5467e-01  1.7881e-02  0:01:07 1914
    87  1.8735e-02  2.4875e-02  7.2523e-03  3.7898e-01  1.8674e-02  0:00:53 1913
    88  1.9417e-02  2.4640e-02  7.1746e-03  4.0520e-01  1.9349e-02  0:00:43 1912

  iter  continuity  x-velocity  y-velocity  z-velocity      energy     time/iter
    89  1.9959e-02  2.4264e-02  7.0886e-03  4.3090e-01  1.9884e-02  0:00:34 1911
    90  2.0340e-02  2.3745e-02  7.0254e-03  4.5418e-01  2.0259e-02  0:00:27 1910
    91  2.0555e-02  2.3095e-02  6.9955e-03  4.7244e-01  2.0467e-02  0:00:22 1909
    92  2.0613e-02  2.2337e-02  7.0160e-03  4.8445e-01  2.0518e-02  0:00:17 1908
    93  2.0528e-02  2.1502e-02  7.1150e-03  4.8918e-01  2.0425e-02  0:06:35 1907
    94  2.0312e-02  2.0617e-02  7.3175e-03  4.8853e-01  2.0204e-02  0:05:16 1906
    95  1.9944e-02  1.9752e-02  7.6339e-03  4.8225e-01  1.9830e-02  0:04:13 1905
    96  1.9430e-02  1.8904e-02  8.0856e-03  4.6970e-01  1.9311e-02  0:03:22 1904
    97  1.8767e-02  1.8054e-02  8.6657e-03  4.5198e-01  1.8643e-02  0:02:42 1903
    98  1.7964e-02  1.7325e-02  9.3206e-03  4.3040e-01  1.7835e-02  0:02:09 1902
    99  1.7036e-02  1.6801e-02  1.0039e-02  4.0720e-01  1.6904e-02  0:01:43 1901

  iter  continuity  x-velocity  y-velocity  z-velocity      energy     time/iter
   100  1.5994e-02  1.6532e-02  1.0813e-02  3.7376e-01  1.5859e-02  0:01:23 1900
   101  1.4850e-02  1.6524e-02  1.1633e-02  3.4353e-01  1.4713e-02  0:01:06 1899
   102  1.3627e-02  1.6797e-02  1.2476e-02  3.1816e-01  1.3487e-02  0:00:53 1898
   103  1.2383e-02  1.7339e-02  1.3325e-02  2.9629e-01  1.2242e-02  0:00:42 1897
   104  1.1118e-02  1.8131e-02  1.4174e-02  2.7943e-01  1.0976e-02  0:00:34 1896
   105  9.8290e-03  1.9124e-02  1.5001e-02  2.7213e-01  9.6879e-03  0:00:27 1895
   106  8.5395e-03  2.0283e-02  1.5782e-02  2.7395e-01  8.3992e-03  0:00:22 1894
   107  7.2737e-03  2.1357e-02  1.6488e-02  2.8407e-01  7.1350e-03  0:00:17 1893
   108  6.0934e-03  2.2609e-02  1.7107e-02  3.0053e-01  5.9579e-03  0:00:14 1892
   109  5.0104e-03  2.3799e-02  1.7623e-02  3.2203e-01  4.8803e-03  0:06:29 1891
   110  4.1073e-03  2.4956e-02  1.8029e-02  3.4516e-01  3.9878e-03  0:05:11 1890

  iter  continuity  x-velocity  y-velocity  z-velocity      energy     time/iter
   111  3.4933e-03  2.6056e-02  1.8313e-02  3.6917e-01  3.3947e-03  0:04:09 1889
   112  3.2675e-03  2.7066e-02  1.8466e-02  3.9150e-01  3.2015e-03  0:03:19 1888
   113  3.4511e-03  2.7955e-02  1.8485e-02  4.1149e-01  3.4200e-03  0:02:39 1887
   114  3.9244e-03  2.8699e-02  1.8371e-02  4.2745e-01  3.9194e-03  0:02:07 1886
   115  4.5464e-03  2.9284e-02  1.8128e-02  4.3905e-01  4.5571e-03  0:01:42 1885
   116  5.2117e-03  2.9698e-02  1.7764e-02  4.4722e-01  5.2305e-03  0:01:21 1884
   117  5.8578e-03  2.9953e-02  1.7284e-02  4.5399e-01  5.8802e-03  0:01:05 1883
   118  6.4499e-03  3.0035e-02  1.6706e-02  4.5506e-01  6.4731e-03  0:00:52 1882
   119  6.9694e-03  2.9931e-02  1.6043e-02  4.5182e-01  6.9916e-03  0:00:42 1881
   120  7.4005e-03  2.9652e-02  1.5298e-02  4.4379e-01  7.4208e-03  0:00:33 1880
   121  7.7350e-03  2.9227e-02  1.4481e-02  4.3205e-01  7.7525e-03  0:00:27 1879

  iter  continuity  x-velocity  y-velocity  z-velocity      energy     time/iter
   122  7.9674e-03  2.8655e-02  1.3606e-02  4.1550e-01  7.9819e-03  0:00:21 1878
   123  8.0955e-03  2.7948e-02  1.2685e-02  3.9611e-01  8.1070e-03  0:06:32 1877
   124  8.1210e-03  2.7127e-02  1.1734e-02  3.7393e-01  8.1293e-03  0:05:14 1876
   125  8.0449e-03  2.6199e-02  1.0769e-02  3.5011e-01  8.0500e-03  0:04:11 1875
   126  7.8723e-03  2.5217e-02  9.7905e-03  3.2434e-01  7.8745e-03  0:03:21 1874
   127  7.6076e-03  2.4138e-02  8.8442e-03  2.9794e-01  7.6071e-03  0:02:40 1873
   128  7.2565e-03  2.3008e-02  7.9449e-03  2.7098e-01  7.2535e-03  0:02:08 1872
   129  6.8304e-03  2.1862e-02  7.1017e-03  2.4474e-01  6.8250e-03  0:01:43 1871
   130  6.3404e-03  2.0729e-02  6.3367e-03  2.2027e-01  6.3331e-03  0:01:22 1870
   131  5.7958e-03  1.9636e-02  5.6737e-03  1.9807e-01  5.7869e-03  0:01:06 1869
   132  5.2042e-03  1.8619e-02  5.1276e-03  1.7948e-01  5.1939e-03  0:00:52 1868

  iter  continuity  x-velocity  y-velocity  z-velocity      energy     time/iter
   133  4.5783e-03  1.7713e-02  4.7113e-03  1.6547e-01  4.5670e-03  0:00:42 1867
   134  3.9322e-03  1.6899e-02  4.4478e-03  1.5750e-01  3.9203e-03  0:00:34 1866
   135  3.2840e-03  1.6237e-02  4.2901e-03  1.5708e-01  3.2720e-03  0:00:27 1865
   136  2.6921e-03  1.5906e-02  4.2778e-03  1.6324e-01  2.6805e-03  0:00:21 1864
   137  2.1723e-03  1.5488e-02  4.3978e-03  1.7511e-01  2.1615e-03  0:00:17 1863
   138  1.7831e-03  1.5034e-02  4.5455e-03  1.9080e-01  1.7738e-03  0:00:14 1862
   139  1.6488e-03  1.4745e-02  4.6710e-03  2.0927e-01  1.6422e-03  0:06:23 1861
   140  1.7896e-03  1.4534e-02  4.7837e-03  2.2893e-01  1.7860e-03  0:05:06 1860
   141  2.1333e-03  1.4384e-02  4.8706e-03  2.4881e-01  2.1314e-03  0:04:05 1859
   142  2.5641e-03  1.4298e-02  4.9051e-03  2.6767e-01  2.5628e-03  0:03:16 1858
   143  3.0214e-03  1.4256e-02  4.9046e-03  2.8569e-01  3.0198e-03  0:02:37 1857

  iter  continuity  x-velocity  y-velocity  z-velocity      energy     time/iter
   144  3.4614e-03  1.4215e-02  4.8634e-03  3.0252e-01  3.4590e-03  0:02:05 1856
   145  3.8783e-03  1.4156e-02  4.7817e-03  3.1800e-01  3.8746e-03  0:01:40 1855
   146  4.2556e-03  1.4074e-02  4.6588e-03  3.3171e-01  4.2503e-03  0:01:20 1854
   147  4.5801e-03  1.3969e-02  4.4994e-03  3.4344e-01  4.5733e-03  0:01:04 1853
   148  4.8484e-03  1.3818e-02  4.3005e-03  3.5426e-01  4.8399e-03  0:00:51 1852
   149  5.0599e-03  1.3633e-02  4.0770e-03  3.6350e-01  5.0498e-03  0:00:41 1851
   150  5.2122e-03  1.3447e-02  3.8325e-03  3.7145e-01  5.2006e-03  0:00:33 1850
   151  5.3028e-03  1.3229e-02  3.6122e-03  3.7740e-01  5.2899e-03  0:00:26 1849
   152  5.3362e-03  1.2969e-02  3.3971e-03  3.8078e-01  5.3221e-03  0:00:21 1848
   153  5.3188e-03  1.2680e-02  3.1965e-03  3.8359e-01  5.3037e-03  0:00:17 1847
   154  5.2539e-03  1.2383e-02  3.0245e-03  3.8379e-01  5.2380e-03  0:06:23 1846

  iter  continuity  x-velocity  y-velocity  z-velocity      energy     time/iter
   155  5.1456e-03  1.2094e-02  2.8940e-03  3.8143e-01  5.1292e-03  0:05:06 1845
   156  5.0032e-03  1.1824e-02  2.8109e-03  3.7657e-01  4.9865e-03  0:04:05 1844
   157  4.8337e-03  1.1599e-02  2.7842e-03  3.7222e-01  4.8170e-03  0:03:16 1843
   158  4.6463e-03  1.1418e-02  2.8158e-03  3.6573e-01  4.6300e-03  0:02:36 1842
   159  4.4501e-03  1.1289e-02  2.8931e-03  3.5960e-01  4.4344e-03  0:02:05 1841
   160  4.2493e-03  1.1226e-02  3.0031e-03  3.5473e-01  4.2345e-03  0:01:40 1840
   161  4.0444e-03  1.1222e-02  3.1331e-03  3.4549e-01  4.0307e-03  0:01:20 1839
   162  3.8568e-03  1.1252e-02  3.2759e-03  3.3307e-01  3.8445e-03  0:01:04 1838
   163  3.7011e-03  1.1336e-02  3.4241e-03  3.1983e-01  3.6904e-03  0:00:51 1837
   164  3.5960e-03  1.1496e-02  3.5408e-03  3.0575e-01  3.5870e-03  0:00:41 1836
   165  3.5463e-03  1.1684e-02  3.6550e-03  2.9037e-01  3.5390e-03  0:00:33 1835

  iter  continuity  x-velocity  y-velocity  z-velocity      energy     time/iter
   166  3.5460e-03  1.1898e-02  3.7493e-03  2.7397e-01  3.5402e-03  0:00:26 1834
   167  3.6032e-03  1.2126e-02  3.8230e-03  2.5632e-01  3.5985e-03  0:00:21 1833
   168  3.7231e-03  1.2360e-02  3.8737e-03  2.3835e-01  3.7190e-03  0:06:23 1832
   169  3.9087e-03  1.2570e-02  3.9041e-03  2.1996e-01  3.9048e-03  0:05:06 1831
   170  4.1450e-03  1.2762e-02  3.9094e-03  2.0104e-01  4.1409e-03  0:04:05 1830
   171  4.4252e-03  1.2941e-02  3.8873e-03  1.8216e-01  4.4205e-03  0:03:16 1829
   172  4.7279e-03  1.3105e-02  3.8427e-03  1.6402e-01  4.7223e-03  0:02:37 1828
   173  5.0360e-03  1.3253e-02  3.7795e-03  1.4759e-01  5.0294e-03  0:02:05 1827
   174  5.3356e-03  1.3373e-02  3.7014e-03  1.3389e-01  5.3277e-03  0:01:40 1826
   175  5.6361e-03  1.3462e-02  3.6127e-03  1.2464e-01  5.6270e-03  0:01:20 1825
   176  5.9305e-03  1.3517e-02  3.5171e-03  1.2101e-01  5.9200e-03  0:01:04 1824

  iter  continuity  x-velocity  y-velocity  z-velocity      energy     time/iter
   177  6.1745e-03  1.3563e-02  3.4241e-03  1.2270e-01  6.1628e-03  0:00:51 1823
   178  6.3741e-03  1.3569e-02  3.3359e-03  1.2849e-01  6.3612e-03  0:00:41 1822
   179  6.5941e-03  1.3558e-02  3.2516e-03  1.3815e-01  6.5799e-03  0:00:33 1821
   180  6.8064e-03  1.3555e-02  3.1872e-03  1.5038e-01  6.7910e-03  0:00:26 1820
   181  6.9807e-03  1.3492e-02  3.1403e-03  1.6399e-01  6.9640e-03  0:00:21 1819
   182  7.0964e-03  1.3422e-02  3.1120e-03  1.7798e-01  7.0787e-03  0:00:17 1818
   183  7.1525e-03  1.3349e-02  3.1047e-03  1.9157e-01  7.1338e-03  0:06:17 1817
   184  7.1620e-03  1.3239e-02  3.1182e-03  2.0449e-01  7.1425e-03  0:05:01 1816
   185  7.1873e-03  1.3196e-02  3.1583e-03  2.1675e-01  7.1670e-03  0:04:01 1815
   186  7.2038e-03  1.3052e-02  3.2055e-03  2.2857e-01  7.1827e-03  0:03:13 1814
   187  7.2549e-03  1.3008e-02  3.2698e-03  2.4026e-01  7.2333e-03  0:02:34 1813

  iter  continuity  x-velocity  y-velocity  z-velocity      energy     time/iter
   188  7.2578e-03  1.2944e-02  3.3505e-03  2.5111e-01  7.2357e-03  0:02:03 1812
   189  7.2784e-03  1.2875e-02  3.4444e-03  2.6171e-01  7.2560e-03  0:01:38 1811
   190  7.3101e-03  1.2778e-02  3.5377e-03  2.7109e-01  7.2874e-03  0:01:19 1810
   191  7.4307e-03  1.2750e-02  3.6438e-03  2.8056e-01  7.4077e-03  0:01:03 1809
   192  7.5482e-03  1.2839e-02  3.7531e-03  2.8227e-01  7.5252e-03  0:00:50 1808
   193  7.6012e-03  1.2758e-02  3.8755e-03  2.8522e-01  7.5780e-03  0:00:40 1807
   194  7.6820e-03  1.2725e-02  4.0066e-03  2.8817e-01  7.6587e-03  0:00:32 1806
   195  7.7631e-03  1.2750e-02  4.1549e-03  2.9395e-01  7.7399e-03  0:00:26 1805
   196  7.8600e-03  1.2862e-02  4.2836e-03  3.0035e-01  7.8369e-03  0:00:21 1804
   197  7.8384e-03  1.2840e-02  4.3986e-03  3.1012e-01  7.8153e-03  0:06:17 1803
   198  7.8199e-03  1.2897e-02  4.5320e-03  3.2087e-01  7.7970e-03  0:05:01 1802

  iter  continuity  x-velocity  y-velocity  z-velocity      energy     time/iter
   199  7.8018e-03  1.3052e-02  4.6724e-03  3.3469e-01  7.7790e-03  0:04:01 1801
   200  7.7549e-03  1.3233e-02  4.8113e-03  3.5026e-01  7.7322e-03  0:03:13 1800
   201  7.6926e-03  1.3331e-02  4.9493e-03  3.6775e-01  7.6701e-03  0:02:34 1799
   202  7.5803e-03  1.3321e-02  5.0703e-03  3.6580e-01  7.5580e-03  0:02:03 1798
   203  7.3936e-03  1.3381e-02  5.1642e-03  3.6225e-01  7.3715e-03  0:01:39 1797
   204  7.1918e-03  1.3473e-02  5.2395e-03  3.5843e-01  7.1699e-03  0:01:19 1796
   205  6.8671e-03  1.3545e-02  5.3249e-03  3.5325e-01  6.8455e-03  0:01:03 1795
   206  6.3317e-03  1.3564e-02  5.3902e-03  3.4478e-01  6.3107e-03  0:00:50 1794
   207  5.8107e-03  1.3462e-02  5.4417e-03  3.3218e-01  5.7900e-03  0:00:40 1793
   208  5.3394e-03  1.3300e-02  5.4755e-03  3.1473e-01  5.3190e-03  0:00:32 1792
   209  5.0017e-03  1.3147e-02  5.4935e-03  2.9293e-01  4.9813e-03  0:00:26 1791

  iter  continuity  x-velocity  y-velocity  z-velocity      energy     time/iter
   210  4.8596e-03  1.2969e-02  5.5006e-03  2.6497e-01  4.8393e-03  0:00:21 1790
   211  4.8582e-03  1.2748e-02  5.4866e-03  2.4575e-01  4.8379e-03  0:06:14 1789
   212  5.1169e-03  1.2503e-02  5.4636e-03  2.3858e-01  5.0966e-03  0:04:59 1788
   213  5.3066e-03  1.2244e-02  5.4338e-03  2.3818e-01  5.2863e-03  0:03:59 1787
   214  5.7164e-03  1.2030e-02  5.4204e-03  2.5016e-01  5.6960e-03  0:03:11 1786
   215  5.7406e-03  1.1796e-02  5.4090e-03  2.6096e-01  5.7201e-03  0:02:33 1785
   216  5.8428e-03  1.1539e-02  5.4150e-03  2.8061e-01  5.8220e-03  0:02:02 1784
   217  6.0061e-03  1.1235e-02  5.4166e-03  2.9910e-01  5.9852e-03  0:01:38 1783
   218  5.7170e-03  1.1002e-02  5.4392e-03  3.2039e-01  5.6960e-03  0:01:18 1782
   219  5.7346e-03  1.0842e-02  5.4693e-03  3.4552e-01  5.7137e-03  0:01:03 1781
   220  5.7367e-03  1.0712e-02  5.4859e-03  3.6934e-01  5.7160e-03  0:00:50 1780

  iter  continuity  x-velocity  y-velocity  z-velocity      energy     time/iter
   221  5.7428e-03  1.0663e-02  5.4952e-03  3.8146e-01  5.7222e-03  0:00:40 1779
   222  5.7507e-03  1.0710e-02  5.4813e-03  4.0495e-01  5.7304e-03  0:00:32 1778
   223  5.8057e-03  1.0813e-02  5.4613e-03  4.3235e-01  5.7856e-03  0:00:26 1777
   224  5.8077e-03  1.0947e-02  5.4569e-03  4.6648e-01  5.7878e-03  0:00:20 1776
   225  5.8041e-03  1.1044e-02  5.4856e-03  4.8985e-01  5.7846e-03  0:06:11 1775
   226  5.7814e-03  1.1195e-02  5.5368e-03  5.1582e-01  5.7624e-03  0:04:57 1774
   227  5.9381e-03  1.1470e-02  5.6245e-03  5.3172e-01  5.9197e-03  0:03:57 1773
   228  6.2642e-03  1.1869e-02  5.7633e-03  5.3465e-01  6.2469e-03  0:03:10 1772
   229  6.7502e-03  1.2328e-02  5.9463e-03  5.2908e-01  6.7339e-03  0:02:32 1771
   230  6.8434e-03  1.2831e-02  6.1636e-03  5.1256e-01  6.8278e-03  0:02:01 1770
   231  6.7181e-03  1.3373e-02  6.3595e-03  5.1634e-01  6.7031e-03  0:01:37 1769

  iter  continuity  x-velocity  y-velocity  z-velocity      energy     time/iter
   232  6.4909e-03  1.3977e-02  6.5085e-03  4.9119e-01  6.4766e-03  0:01:18 1768
   233  6.3181e-03  1.4469e-02  6.6145e-03  4.6430e-01  6.3046e-03  0:01:02 1767
   234  6.2107e-03  1.4939e-02  6.6762e-03  4.3059e-01  6.1980e-03  0:00:50 1766
   235  5.9790e-03  1.5250e-02  6.6691e-03  3.9936e-01  5.9672e-03  0:00:40 1765
   236  5.7162e-03  1.5424e-02  6.6171e-03  3.7419e-01  5.7055e-03  0:00:32 1764
   237  5.4510e-03  1.5489e-02  6.5530e-03  3.5914e-01  5.4413e-03  0:00:25 1763
   238  5.0318e-03  1.5297e-02  6.4318e-03  3.5074e-01  5.0232e-03  0:06:13 1762
   239  4.6652e-03  1.5060e-02  6.2702e-03  3.4459e-01  4.6578e-03  0:04:58 1761
   240  4.3192e-03  1.4792e-02  6.0848e-03  3.3317e-01  4.3128e-03  0:03:58 1760
   241  4.0252e-03  1.4472e-02  5.8815e-03  3.2480e-01  4.0198e-03  0:03:10 1759
   242  3.9957e-03  1.4087e-02  5.6748e-03  3.2082e-01  3.9910e-03  0:02:32 1758

  iter  continuity  x-velocity  y-velocity  z-velocity      energy     time/iter
   243  4.1729e-03  1.3669e-02  5.4671e-03  3.2210e-01  4.1689e-03  0:02:02 1757
   244  4.5025e-03  1.3224e-02  5.2491e-03  3.3327e-01  4.4988e-03  0:01:37 1756
   245  4.8240e-03  1.2781e-02  5.0300e-03  3.3840e-01  4.8205e-03  0:01:18 1755
   246  5.0639e-03  1.2290e-02  4.8186e-03  3.5095e-01  5.0607e-03  0:01:02 1754
   247  5.2065e-03  1.1829e-02  4.6089e-03  3.6539e-01  5.2035e-03  0:00:50 1753
   248  5.2743e-03  1.1455e-02  4.3795e-03  3.8003e-01  5.2715e-03  0:06:30 1752
   249  5.2311e-03  1.1183e-02  4.1420e-03  3.9308e-01  5.2284e-03  0:05:12 1751
   250  5.2023e-03  1.1009e-02  3.9023e-03  4.0168e-01  5.1997e-03  0:04:09 1750
   251  5.1970e-03  1.0869e-02  3.6700e-03  4.0618e-01  5.1943e-03  0:03:19 1749
   252  5.1468e-03  1.0721e-02  3.4629e-03  4.0531e-01  5.1437e-03  0:02:39 1748
   253  4.9608e-03  1.0590e-02  3.2999e-03  4.0079e-01  4.9575e-03  0:02:07 1747

  iter  continuity  x-velocity  y-velocity  z-velocity      energy     time/iter
   254  4.7904e-03  1.0477e-02  3.1791e-03  3.9653e-01  4.7869e-03  0:01:42 1746
   255  4.8661e-03  1.0378e-02  3.1013e-03  3.9307e-01  4.8621e-03  0:01:22 1745
   256  5.0511e-03  1.0255e-02  3.0681e-03  3.8888e-01  5.0467e-03  0:01:05 1744
   257  5.3036e-03  1.0041e-02  3.0681e-03  3.8250e-01  5.2987e-03  0:00:52 1743
   258  5.0896e-03  9.8684e-03  3.0813e-03  3.7628e-01  5.0846e-03  0:00:42 1742
   259  4.7943e-03  9.7191e-03  3.1072e-03  3.6905e-01  4.7892e-03  0:00:33 1741
   260  4.8322e-03  9.6233e-03  3.1434e-03  3.6807e-01  4.8269e-03  0:06:15 1740
   261  4.9695e-03  9.5759e-03  3.1403e-03  3.7618e-01  4.9641e-03  0:05:00 1739
   262  5.1948e-03  9.5522e-03  3.1322e-03  3.8889e-01  5.1894e-03  0:03:59 1738
   263  5.3342e-03  9.5899e-03  3.1010e-03  4.0437e-01  5.3288e-03  0:03:11 1737
   264  5.6350e-03  9.6709e-03  3.0620e-03  4.2007e-01  5.6296e-03  0:02:33 1736

  iter  continuity  x-velocity  y-velocity  z-velocity      energy     time/iter
   265  5.7285e-03  9.7929e-03  3.0289e-03  4.3087e-01  5.7230e-03  0:02:02 1735
   266  5.7098e-03  9.9577e-03  3.0171e-03  4.3967e-01  5.7043e-03  0:01:38 1734
   267  5.5693e-03  1.0081e-02  2.9934e-03  4.4963e-01  5.5637e-03  0:01:18 1733
   268  5.2876e-03  1.0135e-02  2.9718e-03  4.5457e-01  5.2816e-03  0:01:03 1732
   269  5.0494e-03  1.0096e-02  2.9234e-03  4.5863e-01  5.0426e-03  0:00:50 1731
   270  5.0860e-03  1.0018e-02  2.8226e-03  4.6433e-01  5.0784e-03  0:00:40 1730
   271  5.5038e-03  9.9340e-03  2.6990e-03  4.6491e-01  5.4956e-03  0:00:32 1729
   272  6.1148e-03  9.8358e-03  2.5861e-03  4.6460e-01  6.1059e-03  0:00:26 1728
   273  6.5606e-03  9.7103e-03  2.5183e-03  4.6045e-01  6.5512e-03  0:06:06 1727
   274  6.9853e-03  9.5661e-03  2.5022e-03  4.5066e-01  6.9754e-03  0:04:53 1726
   275  7.3514e-03  9.4378e-03  2.5178e-03  4.3527e-01  7.3412e-03  0:03:54 1725

  iter  continuity  x-velocity  y-velocity  z-velocity      energy     time/iter
   276  7.7191e-03  9.2954e-03  2.5602e-03  4.1732e-01  7.7084e-03  0:03:07 1724
   277  7.3621e-03  9.1593e-03  2.6313e-03  3.9522e-01  7.3507e-03  0:02:30 1723
   278  6.8499e-03  9.0871e-03  2.7438e-03  3.7619e-01  6.8377e-03  0:02:00 1722
   279  6.4363e-03  9.1228e-03  2.8982e-03  3.6617e-01  6.4234e-03  0:01:36 1721
   280  6.2678e-03  9.2689e-03  3.0574e-03  3.6272e-01  6.2546e-03  0:01:16 1720
   281  6.2554e-03  9.4250e-03  3.2104e-03  3.6681e-01  6.2423e-03  0:01:01 1719
   282  6.3328e-03  9.5941e-03  3.3658e-03  3.7375e-01  6.3200e-03  0:00:49 1718
   283  6.3669e-03  9.7212e-03  3.5089e-03  3.7934e-01  6.3544e-03  0:00:39 1717
   284  6.0208e-03  9.8144e-03  3.6299e-03  3.7789e-01  6.0083e-03  0:00:31 1716
   285  5.6371e-03  9.8865e-03  3.6939e-03  3.7478e-01  5.6245e-03  0:06:08 1715
   286  5.4871e-03  9.8804e-03  3.6986e-03  3.7829e-01  5.4749e-03  0:04:54 1714

  iter  continuity  x-velocity  y-velocity  z-velocity      energy     time/iter
   287  5.6333e-03  9.8509e-03  3.6474e-03  3.8400e-01  5.6219e-03  0:03:55 1713
   288  5.9128e-03  9.7924e-03  3.5993e-03  3.9069e-01  5.9023e-03  0:03:08 1712
   289  6.1047e-03  9.5731e-03  3.5747e-03  3.9802e-01  6.0949e-03  0:02:30 1711
   290  6.1914e-03  9.3404e-03  3.5879e-03  3.9604e-01  6.1821e-03  0:02:00 1710
   291  6.0636e-03  9.1844e-03  3.6204e-03  3.8795e-01  6.0547e-03  0:01:36 1709
   292  5.5789e-03  9.0454e-03  3.6480e-03  3.7345e-01  5.5700e-03  0:01:17 1708
   293  5.0018e-03  8.9412e-03  3.6347e-03  3.6176e-01  4.9929e-03  0:01:01 1707
   294  4.5280e-03  8.8774e-03  3.6034e-03  3.5269e-01  4.5193e-03  0:00:49 1706
   295  4.3633e-03  8.8762e-03  3.5383e-03  3.5052e-01  4.3553e-03  0:00:39 1705
   296  4.4324e-03  8.8721e-03  3.4514e-03  3.4953e-01  4.4255e-03  0:00:31 1704
   297  4.4823e-03  8.8164e-03  3.3610e-03  3.4823e-01  4.4764e-03  0:06:06 1703

  iter  continuity  x-velocity  y-velocity  z-velocity      energy     time/iter
   298  4.6048e-03  8.7214e-03  3.2825e-03  3.4908e-01  4.5998e-03  0:04:52 1702
   299  4.2682e-03  8.6609e-03  3.2059e-03  3.3808e-01  4.2637e-03  0:03:54 1701
   300  3.8053e-03  8.6266e-03  3.1298e-03  3.2717e-01  3.8014e-03  0:03:07 1700
   301  3.5124e-03  8.5535e-03  3.0543e-03  3.2127e-01  3.5094e-03  0:02:29 1699
   302  3.4070e-03  8.4455e-03  2.9835e-03  3.1277e-01  3.4045e-03  0:01:59 1698
   303  3.3909e-03  8.3894e-03  2.9516e-03  3.1167e-01  3.3889e-03  0:01:36 1697
   304  3.3729e-03  8.2986e-03  2.9072e-03  3.0970e-01  3.3713e-03  0:01:16 1696
   305  3.3938e-03  8.2258e-03  2.8539e-03  3.1086e-01  3.3922e-03  0:01:01 1695
   306  3.2216e-03  8.2033e-03  2.8246e-03  3.0973e-01  3.2201e-03  0:00:49 1694
   307  3.0926e-03  8.1814e-03  2.7764e-03  3.5352e-01  3.0912e-03  0:00:39 1693
   308  3.0844e-03  8.1512e-03  2.7103e-03  3.4298e-01  3.0829e-03  0:00:31 1692

  iter  continuity  x-velocity  y-velocity  z-velocity      energy     time/iter
   309  3.1938e-03  8.1186e-03  2.6123e-03  3.4958e-01  3.1924e-03  0:06:03 1691
   310  3.3926e-03  8.0630e-03  2.4960e-03  3.6096e-01  3.3911e-03  0:04:50 1690
   311  3.3797e-03  8.0071e-03  2.3824e-03  3.7011e-01  3.3782e-03  0:03:52 1689
   312  3.3052e-03  7.9420e-03  2.2754e-03  3.7576e-01  3.3036e-03  0:03:06 1688
   313  3.2773e-03  7.8513e-03  2.1738e-03  3.8035e-01  3.2755e-03  0:02:28 1687
   314  3.2357e-03  7.7517e-03  2.1079e-03  3.8429e-01  3.2337e-03  0:01:59 1686
   315  3.1969e-03  7.6668e-03  2.0918e-03  3.8698e-01  3.1947e-03  0:01:35 1685
   316  3.2669e-03  7.5932e-03  2.1217e-03  3.8591e-01  3.2646e-03  0:01:16 1684
   317  3.3371e-03  7.5637e-03  2.1631e-03  3.8230e-01  3.3347e-03  0:01:01 1683
   318  3.2492e-03  7.5764e-03  2.2059e-03  3.7655e-01  3.2466e-03  0:00:48 1682
   319  3.1087e-03  7.6154e-03  2.2522e-03  3.7003e-01  3.1061e-03  0:00:39 1681

  iter  continuity  x-velocity  y-velocity  z-velocity      energy     time/iter
   320  2.9804e-03  7.6087e-03  2.2888e-03  3.6156e-01  2.9777e-03  0:00:31 1680
   321  2.8958e-03  7.6397e-03  2.2988e-03  3.4981e-01  2.8932e-03  0:00:25 1679
   322  2.8467e-03  7.6268e-03  2.2761e-03  3.3918e-01  2.8441e-03  0:05:55 1678
   323  2.7912e-03  7.5948e-03  2.2256e-03  3.3260e-01  2.7886e-03  0:04:44 1677
   324  2.7034e-03  7.5636e-03  2.1610e-03  3.2911e-01  2.7008e-03  0:03:47 1676
   325  2.5854e-03  7.5266e-03  2.1000e-03  3.3034e-01  2.5826e-03  0:03:02 1675
   326  2.5290e-03  7.4954e-03  2.0428e-03  3.3595e-01  2.5261e-03  0:02:25 1674
   327  2.5762e-03  7.4763e-03  2.0206e-03  3.4176e-01  2.5731e-03  0:01:56 1673
   328  2.6854e-03  7.4740e-03  2.0501e-03  3.4237e-01  2.6821e-03  0:01:33 1672
   329  2.7751e-03  7.5052e-03  2.1279e-03  3.3687e-01  2.7716e-03  0:01:14 1671
   330  2.7697e-03  7.5741e-03  2.2318e-03  3.2776e-01  2.7660e-03  0:00:59 1670

  iter  continuity  x-velocity  y-velocity  z-velocity      energy     time/iter
   331  2.6659e-03  7.6648e-03  2.3423e-03  3.1665e-01  2.6620e-03  0:00:47 1669
   332  2.6023e-03  7.7397e-03  2.4901e-03  3.0309e-01  2.5984e-03  0:00:38 1668
   333  2.5433e-03  7.7974e-03  2.6360e-03  2.9007e-01  2.5394e-03  0:00:30 1667
   334  2.5314e-03  7.7972e-03  2.5572e-03  2.8006e-01  2.5274e-03  0:00:24 1666
   335  2.5268e-03  7.7915e-03  2.5232e-03  2.7451e-01  2.5229e-03  0:05:52 1665
   336  2.4369e-03  7.7720e-03  2.4772e-03  2.7323e-01  2.4332e-03  0:04:42 1664
   337  2.3036e-03  7.7686e-03  2.4201e-03  2.7653e-01  2.3001e-03  0:03:45 1663
   338  2.2610e-03  7.7208e-03  2.3075e-03  2.8361e-01  2.2578e-03  0:03:00 1662
   339  2.3237e-03  7.6735e-03  2.1885e-03  2.8988e-01  2.3208e-03  0:02:24 1661
   340  2.4512e-03  7.6201e-03  2.0640e-03  2.9170e-01  2.4484e-03  0:01:55 1660
   341  2.5765e-03  7.5665e-03  1.9682e-03  2.8903e-01  2.5736e-03  0:01:32 1659

  iter  continuity  x-velocity  y-velocity  z-velocity      energy     time/iter
   342  2.6185e-03  7.5173e-03  1.9113e-03  2.8470e-01  2.6153e-03  0:01:14 1658
   343  2.6437e-03  7.5009e-03  1.9221e-03  2.7743e-01  2.6401e-03  0:00:59 1657
   344  2.6576e-03  7.5129e-03  1.8951e-03  2.6580e-01  2.6538e-03  0:00:47 1656
   345  2.5743e-03  7.5093e-03  1.8904e-03  2.5228e-01  2.5702e-03  0:06:09 1655
   346  2.3896e-03  7.4788e-03  1.9224e-03  2.3972e-01  2.3852e-03  0:04:55 1654
   347  2.2266e-03  7.4496e-03  1.9577e-03  2.3013e-01  2.2219e-03  0:03:56 1653
   348  2.0375e-03  7.4343e-03  1.9655e-03  2.2325e-01  2.0327e-03  0:03:08 1652
   349  1.8946e-03  7.4582e-03  2.0658e-03  2.1804e-01  1.8899e-03  0:02:31 1651
   350  1.7516e-03  7.3891e-03  2.0065e-03  2.1468e-01  1.7467e-03  0:02:00 1650
   351  1.6918e-03  7.3564e-03  1.9291e-03  2.1169e-01  1.6869e-03  0:01:36 1649
   352  1.7119e-03  7.3191e-03  1.8930e-03  2.0903e-01  1.7071e-03  0:01:17 1648

  iter  continuity  x-velocity  y-velocity  z-velocity      energy     time/iter
   353  1.7707e-03  7.2680e-03  1.8434e-03  2.0689e-01  1.7657e-03  0:01:02 1647
   354  1.8625e-03  7.2258e-03  1.8003e-03  2.0416e-01  1.8573e-03  0:00:49 1646
   355  1.9592e-03  7.1788e-03  1.7597e-03  2.0078e-01  1.9537e-03  0:00:39 1645
   356  2.0469e-03  7.1318e-03  1.7191e-03  1.9745e-01  2.0412e-03  0:00:31 1644
   357  2.1207e-03  7.0872e-03  1.6788e-03  1.9425e-01  2.1146e-03  0:05:54 1643
   358  2.1603e-03  7.0369e-03  1.6474e-03  1.9103e-01  2.1538e-03  0:04:43 1642
   359  2.1501e-03  6.9817e-03  1.6312e-03  1.8790e-01  2.1433e-03  0:03:46 1641
   360  2.1086e-03  6.9255e-03  1.6435e-03  1.8545e-01  2.1013e-03  0:03:01 1640
   361  2.0505e-03  6.8795e-03  1.6639e-03  1.8302e-01  2.0426e-03  0:02:25 1639
   362  1.9969e-03  6.8394e-03  1.6787e-03  1.8088e-01  1.9886e-03  0:01:56 1638
   363  1.9499e-03  6.7996e-03  1.7016e-03  1.7909e-01  1.9412e-03  0:01:32 1637

  iter  continuity  x-velocity  y-velocity  z-velocity      energy     time/iter
   364  1.9248e-03  6.7603e-03  1.7314e-03  1.7763e-01  1.9157e-03  0:01:14 1636
   365  1.9117e-03  6.7212e-03  1.7630e-03  1.7660e-01  1.9022e-03  0:00:59 1635
   366  1.9051e-03  6.6788e-03  1.7947e-03  1.7596e-01  1.8952e-03  0:00:47 1634
   367  1.9014e-03  6.6239e-03  1.8262e-03  1.7561e-01  1.8911e-03  0:00:38 1633
   368  1.9040e-03  6.5715e-03  1.8605e-03  1.7624e-01  1.8932e-03  0:00:30 1632
   369  1.9147e-03  6.5223e-03  1.8943e-03  1.7642e-01  1.9034e-03  0:00:24 1631
   370  1.9280e-03  6.4827e-03  1.9274e-03  1.7571e-01  1.9161e-03  0:05:45 1630
   371  1.9396e-03  6.4463e-03  1.9584e-03  1.7461e-01  1.9271e-03  0:04:36 1629
   372  1.9536e-03  6.4133e-03  1.9877e-03  1.7350e-01  1.9406e-03  0:03:41 1628
   373  1.9675e-03  6.3793e-03  2.0148e-03  1.7249e-01  1.9539e-03  0:02:56 1627
   374  1.9788e-03  6.3477e-03  2.0411e-03  1.7164e-01  1.9645e-03  0:02:21 1626

  iter  continuity  x-velocity  y-velocity  z-velocity      energy     time/iter
   375  1.9869e-03  6.3177e-03  2.0690e-03  1.7098e-01  1.9718e-03  0:01:53 1625
   376  1.9923e-03  6.2887e-03  2.0988e-03  1.7077e-01  1.9765e-03  0:01:30 1624
   377  1.9961e-03  6.2614e-03  2.1303e-03  1.7099e-01  1.9795e-03  0:01:12 1623
   378  2.0001e-03  6.2356e-03  2.1633e-03  1.7116e-01  1.9826e-03  0:00:58 1622
   379  2.0055e-03  6.2123e-03  2.1976e-03  1.7118e-01  1.9872e-03  0:00:46 1621
   380  2.0131e-03  6.1910e-03  2.2330e-03  1.7086e-01  1.9940e-03  0:00:37 1620
   381  2.0235e-03  6.1712e-03  2.2690e-03  1.6991e-01  2.0036e-03  0:00:29 1619
   382  2.0370e-03  6.1525e-03  2.3054e-03  1.6825e-01  2.0164e-03  0:05:47 1618
   383  2.0536e-03  6.1343e-03  2.3419e-03  1.6557e-01  2.0322e-03  0:04:38 1617
   384  2.0723e-03  6.1168e-03  2.3786e-03  1.6226e-01  2.0501e-03  0:03:42 1616
   385  2.0918e-03  6.0981e-03  2.4155e-03  1.5850e-01  2.0689e-03  0:02:57 1615

  iter  continuity  x-velocity  y-velocity  z-velocity      energy     time/iter
   386  2.1119e-03  6.0796e-03  2.4527e-03  1.5428e-01  2.0883e-03  0:02:22 1614
   387  2.1328e-03  6.0626e-03  2.4901e-03  1.4992e-01  2.1085e-03  0:01:53 1613
   388  2.1540e-03  6.0476e-03  2.5272e-03  1.4543e-01  2.1290e-03  0:01:31 1612
   389  2.1744e-03  6.0333e-03  2.5644e-03  1.4106e-01  2.1487e-03  0:01:12 1611
   390  2.1939e-03  6.0191e-03  2.6015e-03  1.3681e-01  2.1676e-03  0:00:58 1610
   391  2.2122e-03  6.0057e-03  2.6384e-03  1.3282e-01  2.1853e-03  0:00:46 1609
   392  2.2291e-03  5.9939e-03  2.6756e-03  1.2910e-01  2.2015e-03  0:00:37 1608
   393  2.2446e-03  5.9833e-03  2.7131e-03  1.2568e-01  2.2164e-03  0:00:30 1607
   394  2.2584e-03  5.9733e-03  2.7508e-03  1.2269e-01  2.2297e-03  0:00:24 1606
   395  2.2707e-03  5.9643e-03  2.7880e-03  1.2008e-01  2.2415e-03  0:05:40 1605
   396  2.2808e-03  5.9555e-03  2.8250e-03  1.1769e-01  2.2511e-03  0:04:32 1604

  iter  continuity  x-velocity  y-velocity  z-velocity      energy     time/iter
   397  2.2879e-03  5.9478e-03  2.8619e-03  1.1557e-01  2.2577e-03  0:03:37 1603
   398  2.2898e-03  5.9428e-03  2.8985e-03  1.1374e-01  2.2592e-03  0:02:54 1602
   399  2.2865e-03  5.9403e-03  2.9347e-03  1.1207e-01  2.2554e-03  0:02:19 1601
   400  2.2813e-03  5.9421e-03  2.9703e-03  1.1056e-01  2.2498e-03  0:01:51 1600
   401  2.2731e-03  5.9484e-03  3.0047e-03  1.0934e-01  2.2413e-03  0:01:29 1599
   402  2.2622e-03  5.9575e-03  3.0380e-03  1.0830e-01  2.2301e-03  0:01:11 1598
   403  2.2499e-03  5.9704e-03  3.0695e-03  1.0745e-01  2.2176e-03  0:00:57 1597
   404  2.2362e-03  5.9859e-03  3.0987e-03  1.0681e-01  2.2037e-03  0:00:45 1596
   405  2.2222e-03  6.0048e-03  3.1252e-03  1.0630e-01  2.1897e-03  0:00:36 1595
   406  2.2067e-03  6.0281e-03  3.1492e-03  1.0598e-01  2.1741e-03  0:00:29 1594
   407  2.1910e-03  6.0546e-03  3.1714e-03  1.0575e-01  2.1585e-03  0:00:23 1593

  iter  continuity  x-velocity  y-velocity  z-velocity      energy     time/iter
   408  2.1761e-03  6.0851e-03  3.1910e-03  1.0553e-01  2.1438e-03  0:05:37 1592
   409  2.1606e-03  6.1186e-03  3.2083e-03  1.0509e-01  2.1284e-03  0:04:29 1591
   410  2.1430e-03  6.1540e-03  3.2231e-03  1.0461e-01  2.1112e-03  0:03:35 1590
   411  2.1237e-03  6.1889e-03  3.2411e-03  1.0412e-01  2.0922e-03  0:02:52 1589
   412  2.1059e-03  6.2334e-03  3.2522e-03  1.0355e-01  2.0747e-03  0:02:18 1588
   413  2.0853e-03  6.2753e-03  3.2524e-03  1.0270e-01  2.0546e-03  0:01:50 1587
   414  2.0580e-03  6.3153e-03  3.2530e-03  1.0160e-01  2.0277e-03  0:01:28 1586
   415  2.0357e-03  6.3619e-03  3.2773e-03  1.0021e-01  2.0058e-03  0:01:10 1585
   416  1.9970e-03  6.4010e-03  3.2588e-03  9.8769e-02  1.9675e-03  0:00:56 1584
   417  1.9532e-03  6.4399e-03  3.2376e-03  9.7448e-02  1.9241e-03  0:00:45 1583
   418  1.9228e-03  6.4830e-03  3.2216e-03  9.6176e-02  1.8942e-03  0:00:36 1582

  iter  continuity  x-velocity  y-velocity  z-velocity      energy     time/iter
   419  1.8956e-03  6.5306e-03  3.2034e-03  9.4955e-02  1.8675e-03  0:00:29 1581
   420  1.8729e-03  6.5741e-03  3.1828e-03  9.3898e-02  1.8455e-03  0:05:39 1580
   421  1.8503e-03  6.6146e-03  3.1580e-03  9.2877e-02  1.8236e-03  0:04:31 1579
   422  1.8247e-03  6.6525e-03  3.1315e-03  9.1934e-02  1.7986e-03  0:03:37 1578
   423  1.8009e-03  6.6841e-03  3.1028e-03  9.0936e-02  1.7755e-03  0:02:53 1577
   424  1.7788e-03  6.7061e-03  3.0726e-03  9.0069e-02  1.7541e-03  0:02:18 1576
   425  1.7546e-03  6.7245e-03  3.0390e-03  8.9024e-02  1.7306e-03  0:01:51 1575
   426  1.7213e-03  6.7439e-03  3.0023e-03  8.7984e-02  1.6979e-03  0:01:29 1574
   427  1.6861e-03  6.7643e-03  2.9640e-03  8.6889e-02  1.6632e-03  0:01:11 1573
   428  1.6528e-03  6.7796e-03  2.9250e-03  8.5682e-02  1.6304e-03  0:00:57 1572
   429  1.6127e-03  6.7824e-03  2.8855e-03  8.4429e-02  1.5907e-03  0:00:45 1571

  iter  continuity  x-velocity  y-velocity  z-velocity      energy     time/iter
   430  1.5732e-03  6.7730e-03  2.8432e-03  8.2979e-02  1.5516e-03  0:00:36 1570
   431  1.5427e-03  6.7700e-03  2.8000e-03  8.1440e-02  1.5216e-03  0:00:29 1569
   432  1.5148e-03  6.7631e-03  2.7546e-03  7.9918e-02  1.4941e-03  0:00:23 1568
   433  1.4855e-03  6.7483e-03  2.7087e-03  7.8562e-02  1.4651e-03  0:05:32 1567
   434  1.4583e-03  6.7331e-03  2.6612e-03  7.7356e-02  1.4384e-03  0:04:25 1566
   435  1.4307e-03  6.7172e-03  2.6110e-03  7.6124e-02  1.4112e-03  0:03:32 1565
   436  1.4037e-03  6.7008e-03  2.5600e-03  7.4744e-02  1.3844e-03  0:02:50 1564
   437  1.3793e-03  6.6815e-03  2.5092e-03  7.3410e-02  1.3605e-03  0:02:16 1563
   438  1.3664e-03  6.6574e-03  2.4568e-03  7.2078e-02  1.3480e-03  0:01:48 1562
   439  1.3508e-03  6.6265e-03  2.4039e-03  7.0615e-02  1.3327e-03  0:01:27 1561
   440  1.3299e-03  6.5900e-03  2.3519e-03  6.9008e-02  1.3121e-03  0:01:09 1560

  iter  continuity  x-velocity  y-velocity  z-velocity      energy     time/iter
   441  1.3097e-03  6.5575e-03  2.3003e-03  6.7415e-02  1.2921e-03  0:00:55 1559
   442  1.2921e-03  6.5290e-03  2.2510e-03  6.5858e-02  1.2747e-03  0:00:44 1558
   443  1.2752e-03  6.5006e-03  2.2041e-03  6.4355e-02  1.2579e-03  0:00:35 1557
   444  1.2588e-03  6.4712e-03  2.1598e-03  6.2956e-02  1.2416e-03  0:00:28 1556
   445  1.2426e-03  6.4406e-03  2.1184e-03  6.1685e-02  1.2254e-03  0:05:34 1555
   446  1.2235e-03  6.4087e-03  2.0797e-03  6.0553e-02  1.2062e-03  0:04:27 1554
   447  1.2013e-03  6.3748e-03  2.0438e-03  5.9492e-02  1.1839e-03  0:03:33 1553
   448  1.1781e-03  6.3329e-03  2.0103e-03  5.8586e-02  1.1604e-03  0:02:50 1552
   449  1.1555e-03  6.2899e-03  1.9791e-03  5.7794e-02  1.1376e-03  0:02:16 1551
   450  1.1350e-03  6.2475e-03  1.9508e-03  5.7138e-02  1.1168e-03  0:01:49 1550
   451  1.1233e-03  6.2041e-03  1.9247e-03  5.6572e-02  1.1049e-03  0:01:27 1549

  iter  continuity  x-velocity  y-velocity  z-velocity      energy     time/iter
   452  1.1117e-03  6.1471e-03  1.9025e-03  5.6094e-02  1.0931e-03  0:01:10 1548
   453  1.1024e-03  6.0857e-03  1.8834e-03  5.5681e-02  1.0834e-03  0:00:56 1547
   454  1.0969e-03  6.0319e-03  1.8667e-03  5.5365e-02  1.0777e-03  0:00:45 1546
   455  1.0954e-03  5.9788e-03  1.8525e-03  5.5079e-02  1.0760e-03  0:00:36 1545
   456  1.0973e-03  5.9296e-03  1.8403e-03  5.4829e-02  1.0777e-03  0:00:28 1544
   457  1.1010e-03  5.8814e-03  1.8314e-03  5.4664e-02  1.0812e-03  0:05:31 1543
   458  1.1055e-03  5.8345e-03  1.8266e-03  5.4479e-02  1.0855e-03  0:04:25 1542
   459  1.1116e-03  5.7905e-03  1.8252e-03  5.4315e-02  1.0915e-03  0:03:32 1541
   460  1.1175e-03  5.7491e-03  1.8254e-03  5.4214e-02  1.0973e-03  0:02:49 1540
   461  1.1234e-03  5.7115e-03  1.8277e-03  5.4179e-02  1.1031e-03  0:02:15 1539
   462  1.1300e-03  5.6769e-03  1.8326e-03  5.4140e-02  1.1094e-03  0:01:48 1538

  iter  continuity  x-velocity  y-velocity  z-velocity      energy     time/iter
   463  1.1403e-03  5.6506e-03  1.8393e-03  5.4070e-02  1.1197e-03  0:01:27 1537
   464  1.1478e-03  5.6179e-03  1.8470e-03  5.3930e-02  1.1271e-03  0:01:09 1536
   465  1.1575e-03  5.5820e-03  1.8558e-03  5.3750e-02  1.1366e-03  0:00:55 1535
   466  1.1656e-03  5.5530e-03  1.8658e-03  5.3549e-02  1.1447e-03  0:00:44 1534
   467  1.1728e-03  5.5322e-03  1.8765e-03  5.3322e-02  1.1517e-03  0:05:42 1533
   468  1.1803e-03  5.5154e-03  1.8878e-03  5.3036e-02  1.1591e-03  0:04:33 1532
   469  1.1880e-03  5.5022e-03  1.9001e-03  5.2675e-02  1.1667e-03  0:03:39 1531
   470  1.1951e-03  5.4906e-03  1.9136e-03  5.2190e-02  1.1738e-03  0:02:55 1530
   471  1.2013e-03  5.4819e-03  1.9279e-03  5.1706e-02  1.1799e-03  0:02:20 1529
   472  1.2058e-03  5.4749e-03  1.9425e-03  5.1201e-02  1.1842e-03  0:01:52 1528
   473  1.2083e-03  5.4651e-03  1.9567e-03  5.0665e-02  1.1865e-03  0:01:29 1527

  iter  continuity  x-velocity  y-velocity  z-velocity      energy     time/iter
   474  1.2054e-03  5.4392e-03  1.9704e-03  5.0098e-02  1.1834e-03  0:01:11 1526
   475  1.2074e-03  5.4186e-03  1.9829e-03  4.9531e-02  1.1853e-03  0:00:57 1525
   476  1.2056e-03  5.3942e-03  1.9953e-03  4.8941e-02  1.1832e-03  0:00:46 1524
   477  1.2063e-03  5.3718e-03  2.0075e-03  4.8187e-02  1.1837e-03  0:00:36 1523
   478  1.2055e-03  5.3517e-03  2.0188e-03  4.7498e-02  1.1827e-03  0:00:29 1522
   479  1.2058e-03  5.3279e-03  2.0299e-03  4.6766e-02  1.1829e-03  0:05:28 1521
   480  1.2067e-03  5.2921e-03  2.0394e-03  4.5974e-02  1.1836e-03  0:04:22 1520
   481  1.2071e-03  5.2453e-03  2.0485e-03  4.5137e-02  1.1838e-03  0:03:29 1519
   482  1.2078e-03  5.2050e-03  2.0577e-03  4.4262e-02  1.1844e-03  0:02:47 1518
   483  1.2084e-03  5.1675e-03  2.0665e-03  4.3367e-02  1.1848e-03  0:02:14 1517
   484  1.2081e-03  5.1270e-03  2.0744e-03  4.2458e-02  1.1843e-03  0:01:47 1516

  iter  continuity  x-velocity  y-velocity  z-velocity      energy     time/iter
   485  1.2079e-03  5.0855e-03  2.0814e-03  4.1563e-02  1.1840e-03  0:01:26 1515
   486  1.2075e-03  5.0438e-03  2.0879e-03  4.0653e-02  1.1834e-03  0:01:08 1514
   487  1.2075e-03  5.0024e-03  2.0941e-03  3.9747e-02  1.1833e-03  0:00:55 1513
   488  1.2084e-03  4.9576e-03  2.0996e-03  3.8871e-02  1.1842e-03  0:00:44 1512
   489  1.2063e-03  4.9068e-03  2.1050e-03  3.7999e-02  1.1819e-03  0:00:35 1511
   490  1.2038e-03  4.8610e-03  2.1099e-03  3.7155e-02  1.1793e-03  0:00:28 1510
   491  1.2015e-03  4.8195e-03  2.1141e-03  3.6344e-02  1.1769e-03  0:05:24 1509
   492  1.1989e-03  4.7797e-03  2.1176e-03  3.5553e-02  1.1742e-03  0:04:19 1508
   493  1.1970e-03  4.7409e-03  2.1212e-03  3.4794e-02  1.1722e-03  0:03:27 1507
   494  1.1945e-03  4.6981e-03  2.1240e-03  3.4057e-02  1.1696e-03  0:02:46 1506
   495  1.1914e-03  4.6495e-03  2.1268e-03  3.3340e-02  1.1665e-03  0:02:12 1505

  iter  continuity  x-velocity  y-velocity  z-velocity      energy     time/iter
   496  1.1890e-03  4.6002e-03  2.1294e-03  3.2683e-02  1.1640e-03  0:01:46 1504
   497  1.1858e-03  4.5542e-03  2.1313e-03  3.2031e-02  1.1607e-03  0:01:25 1503
   498  1.1814e-03  4.5147e-03  2.1326e-03  3.1424e-02  1.1563e-03  0:01:08 1502
   499  1.1753e-03  4.4763e-03  2.1336e-03  3.0863e-02  1.1501e-03  0:00:54 1501
   500  1.1682e-03  4.4394e-03  2.1347e-03  3.0350e-02  1.1430e-03  0:00:43 1500
   501  1.1621e-03  4.4085e-03  2.1354e-03  2.9894e-02  1.1368e-03  0:00:35 1499
   502  1.1558e-03  4.3815e-03  2.1358e-03  2.9516e-02  1.1305e-03  0:05:27 1498
   503  1.1512e-03  4.3573e-03  2.1357e-03  2.9156e-02  1.1259e-03  0:04:22 1497
   504  1.1437e-03  4.3335e-03  2.1354e-03  2.8898e-02  1.1184e-03  0:03:29 1496
   505  1.1348e-03  4.3093e-03  2.1350e-03  2.8665e-02  1.1095e-03  0:02:47 1495
   506  1.1256e-03  4.2867e-03  2.1341e-03  2.8423e-02  1.1003e-03  0:02:14 1494

  iter  continuity  x-velocity  y-velocity  z-velocity      energy     time/iter
   507  1.1144e-03  4.2479e-03  2.1328e-03  2.8267e-02  1.0891e-03  0:01:47 1493
   508  1.1047e-03  4.2145e-03  2.1314e-03  2.7955e-02  1.0795e-03  0:01:25 1492
   509  1.0949e-03  4.1799e-03  2.1288e-03  2.7562e-02  1.0697e-03  0:01:08 1491
   510  1.0829e-03  4.1388e-03  2.1257e-03  2.7159e-02  1.0577e-03  0:00:55 1490
   511  1.0698e-03  4.0933e-03  2.1224e-03  2.6779e-02  1.0446e-03  0:00:44 1489
   512  1.0581e-03  4.0474e-03  2.1183e-03  2.6390e-02  1.0330e-03  0:00:35 1488
   513  1.0466e-03  4.0004e-03  2.1134e-03  2.6013e-02  1.0214e-03  0:00:28 1487
   514  1.0351e-03  3.9522e-03  2.1081e-03  2.5650e-02  1.0101e-03  0:05:20 1486
   515  1.0240e-03  3.9065e-03  2.1022e-03  2.5315e-02  9.9898e-04  0:04:15 1485
   516  1.0126e-03  3.8611e-03  2.0958e-03  2.4982e-02  9.8764e-04  0:03:24 1484
   517  1.0019e-03  3.8199e-03  2.0888e-03  2.4657e-02  9.7705e-04  0:02:43 1483

  iter  continuity  x-velocity  y-velocity  z-velocity      energy     time/iter
   518  9.9114e-04  3.7799e-03  2.0810e-03  2.4328e-02  9.6639e-04  0:02:11 1482
   519  9.8077e-04  3.7418e-03  2.0727e-03  2.4014e-02  9.5613e-04  0:01:44 1481
   520  9.7065e-04  3.7064e-03  2.0636e-03  2.3703e-02  9.4614e-04  0:01:23 1480
   521  9.6114e-04  3.6723e-03  2.0537e-03  2.3389e-02  9.3676e-04  0:01:07 1479
   522  9.5240e-04  3.6327e-03  2.0431e-03  2.3055e-02  9.2816e-04  0:00:53 1478
   523  9.4315e-04  3.5914e-03  2.0320e-03  2.2755e-02  9.1904e-04  0:00:43 1477
   524  9.3204e-04  3.5520e-03  2.0213e-03  2.2438e-02  9.0802e-04  0:00:34 1476
   525  9.2274e-04  3.5135e-03  2.0090e-03  2.2059e-02  8.9886e-04  0:05:22 1475
   526  9.1320e-04  3.4709e-03  1.9955e-03  2.1925e-02  8.8943e-04  0:04:18 1474
   527  9.0414e-04  3.4264e-03  1.9816e-03  2.1878e-02  8.8049e-04  0:03:26 1473
   528  8.9557e-04  3.3803e-03  1.9674e-03  2.1770e-02  8.7202e-04  0:02:45 1472

  iter  continuity  x-velocity  y-velocity  z-velocity      energy     time/iter
   529  8.8778e-04  3.3355e-03  1.9532e-03  2.1544e-02  8.6435e-04  0:02:12 1471
   530  8.8048e-04  3.2938e-03  1.9387e-03  2.1181e-02  8.5719e-04  0:01:45 1470
   531  8.7381e-04  3.2561e-03  1.9237e-03  2.0746e-02  8.5066e-04  0:01:24 1469
   532  8.6769e-04  3.2204e-03  1.9087e-03  2.0318e-02  8.4469e-04  0:01:07 1468
   533  8.6174e-04  3.1852e-03  1.8936e-03  1.9762e-02  8.3889e-04  0:00:54 1467
   534  8.5600e-04  3.1519e-03  1.8784e-03  1.9332e-02  8.3330e-04  0:00:43 1466
   535  8.5082e-04  3.1212e-03  1.8633e-03  1.9067e-02  8.2828e-04  0:00:34 1465
   536  8.4622e-04  3.0931e-03  1.8482e-03  1.8794e-02  8.2383e-04  0:05:20 1464
   537  8.4146e-04  3.0648e-03  1.8333e-03  1.8507e-02  8.1923e-04  0:04:16 1463
   538  8.3688e-04  3.0347e-03  1.8183e-03  1.8179e-02  8.1479e-04  0:03:25 1462
   539  8.3299e-04  3.0055e-03  1.8035e-03  1.7833e-02  8.1106e-04  0:02:44 1461

  iter  continuity  x-velocity  y-velocity  z-velocity      energy     time/iter
   540  8.2964e-04  2.9783e-03  1.7892e-03  1.7522e-02  8.0788e-04  0:02:11 1460
   541  8.2623e-04  2.9509e-03  1.7748e-03  1.7046e-02  8.0463e-04  0:01:45 1459
   542  8.1968e-04  2.9179e-03  1.7602e-03  1.6682e-02  7.9815e-04  0:01:24 1458
   543  8.1418e-04  2.8874e-03  1.7458e-03  1.6347e-02  7.9276e-04  0:01:07 1457
   544  8.0926e-04  2.8589e-03  1.7317e-03  1.6069e-02  7.8796e-04  0:00:53 1456
   545  8.0434e-04  2.8321e-03  1.7182e-03  1.5822e-02  7.8316e-04  0:00:43 1455
   546  8.0076e-04  2.8086e-03  1.7051e-03  1.5595e-02  7.7974e-04  0:00:34 1454
   547  7.9668e-04  2.7847e-03  1.6920e-03  1.5376e-02  7.7580e-04  0:05:18 1453
   548  7.9158e-04  2.7591e-03  1.6793e-03  1.5173e-02  7.7082e-04  0:04:14 1452
   549  7.8586e-04  2.7326e-03  1.6668e-03  1.4985e-02  7.6520e-04  0:03:23 1451
   550  7.8034e-04  2.7072e-03  1.6548e-03  1.4816e-02  7.5979e-04  0:02:42 1450

  iter  continuity  x-velocity  y-velocity  z-velocity      energy     time/iter
   551  7.7488e-04  2.6835e-03  1.6432e-03  1.4622e-02  7.5445e-04  0:02:10 1449
   552  7.6923e-04  2.6614e-03  1.6318e-03  1.4434e-02  7.4892e-04  0:01:44 1448
   553  7.6343e-04  2.6412e-03  1.6207e-03  1.4225e-02  7.4325e-04  0:01:23 1447
   554  7.5747e-04  2.6222e-03  1.6099e-03  1.4023e-02  7.3741e-04  0:01:06 1446
   555  7.5131e-04  2.6045e-03  1.5993e-03  1.3815e-02  7.3137e-04  0:00:53 1445
   556  7.4528e-04  2.5899e-03  1.5889e-03  1.3606e-02  7.2547e-04  0:00:42 1444
   557  7.3889e-04  2.5775e-03  1.5787e-03  1.3371e-02  7.1922e-04  0:00:34 1443
   558  7.3201e-04  2.5654e-03  1.5686e-03  1.3103e-02  7.1246e-04  0:00:27 1442
   559  7.2477e-04  2.5537e-03  1.5586e-03  1.2818e-02  7.0534e-04  0:05:10 1441
   560  7.1732e-04  2.5422e-03  1.5487e-03  1.2526e-02  6.9801e-04  0:04:08 1440
   561  7.0987e-04  2.5302e-03  1.5388e-03  1.3944e-02  6.9069e-04  0:03:18 1439

  iter  continuity  x-velocity  y-velocity  z-velocity      energy     time/iter
   562  7.0228e-04  2.5191e-03  1.5289e-03  1.5183e-02  6.8323e-04  0:02:38 1438
   563  6.9490e-04  2.5103e-03  1.5192e-03  1.6099e-02  6.7600e-04  0:02:07 1437
   564  6.8771e-04  2.5022e-03  1.5093e-03  1.6804e-02  6.6896e-04  0:01:41 1436
   565  6.8044e-04  2.4944e-03  1.4990e-03  1.6977e-02  6.6185e-04  0:01:21 1435
   566  6.7301e-04  2.4866e-03  1.4888e-03  1.6860e-02  6.5456e-04  0:01:05 1434
   567  6.6581e-04  2.4797e-03  1.4785e-03  1.6486e-02  6.4752e-04  0:00:52 1433
   568  6.5892e-04  2.4741e-03  1.4681e-03  1.6137e-02  6.4080e-04  0:00:41 1432
   569  6.5143e-04  2.4674e-03  1.4576e-03  1.5803e-02  6.3347e-04  0:00:33 1431
   570  6.4311e-04  2.4584e-03  1.4470e-03  1.5452e-02  6.2528e-04  0:00:26 1430
   571  6.3329e-04  2.4470e-03  1.4360e-03  1.5104e-02  6.1557e-04  0:05:07 1429
   572  6.2437e-04  2.4367e-03  1.4250e-03  1.4683e-02  6.0677e-04  0:04:05 1428

  iter  continuity  x-velocity  y-velocity  z-velocity      energy     time/iter
   573  6.1639e-04  2.4283e-03  1.4136e-03  1.4203e-02  5.9893e-04  0:03:16 1427
   574  6.0890e-04  2.4212e-03  1.4022e-03  1.3688e-02  5.9158e-04  0:02:37 1426
   575  6.0196e-04  2.4153e-03  1.3906e-03  1.3179e-02  5.8481e-04  0:02:05 1425
   576  5.9459e-04  2.4077e-03  1.3789e-03  1.2738e-02  5.7758e-04  0:01:40 1424
   577  5.8712e-04  2.3989e-03  1.3670e-03  1.2441e-02  5.7025e-04  0:01:20 1423
   578  5.7972e-04  2.3868e-03  1.3549e-03  1.2399e-02  5.6299e-04  0:01:04 1422
   579  5.7315e-04  2.3740e-03  1.3426e-03  1.2646e-02  5.5657e-04  0:00:51 1421
   580  5.6611e-04  2.3644e-03  1.3302e-03  1.3211e-02  5.4967e-04  0:00:41 1420
   581  5.5910e-04  2.3555e-03  1.3177e-03  1.4114e-02  5.4280e-04  0:00:33 1419
   582  5.5231e-04  2.3459e-03  1.3052e-03  1.5193e-02  5.3615e-04  0:00:26 1418
   583  5.4589e-04  2.3362e-03  1.2925e-03  1.6007e-02  5.2988e-04  0:05:04 1417

  iter  continuity  x-velocity  y-velocity  z-velocity      energy     time/iter
   584  5.3974e-04  2.3268e-03  1.2797e-03  1.7195e-02  5.2387e-04  0:04:03 1416
   585  5.3383e-04  2.3174e-03  1.2668e-03  1.7907e-02  5.1811e-04  0:03:14 1415
   586  5.2806e-04  2.3079e-03  1.2539e-03  1.8487e-02  5.1248e-04  0:02:35 1414
   587  5.2237e-04  2.2985e-03  1.2411e-03  1.8824e-02  5.0694e-04  0:02:04 1413
   588  5.1686e-04  2.2888e-03  1.2283e-03  1.9624e-02  5.0158e-04  0:01:39 1412
   589  5.1150e-04  2.2793e-03  1.2156e-03  2.0471e-02  4.9636e-04  0:01:19 1411
   590  5.0612e-04  2.2696e-03  1.2029e-03  2.1374e-02  4.9112e-04  0:01:04 1410
   591  5.0104e-04  2.2598e-03  1.1904e-03  2.2426e-02  4.8618e-04  0:00:51 1409
   592  4.9603e-04  2.2497e-03  1.1779e-03  2.3076e-02  4.8131e-04  0:00:41 1408
   593  4.9120e-04  2.2394e-03  1.1656e-03  2.3890e-02  4.7663e-04  0:00:32 1407
   594  4.8667e-04  2.2295e-03  1.1532e-03  2.4861e-02  4.7225e-04  0:00:26 1406

  iter  continuity  x-velocity  y-velocity  z-velocity      energy     time/iter
   595  4.8245e-04  2.2201e-03  1.1409e-03  2.5838e-02  4.6818e-04  0:05:02 1405
   596  4.7955e-04  2.2120e-03  1.1288e-03  2.6631e-02  4.6548e-04  0:04:01 1404
   597  4.7678e-04  2.2046e-03  1.1168e-03  2.7632e-02  4.6291e-04  0:03:13 1403
   598  4.7411e-04  2.1982e-03  1.1050e-03  2.8601e-02  4.6044e-04  0:02:34 1402
   599  4.6978e-04  2.1900e-03  1.0932e-03  2.9318e-02  4.5626e-04  0:02:03 1401
   600  4.6450e-04  2.1811e-03  1.0815e-03  2.9622e-02  4.5111e-04  0:01:39 1400
   601  4.5362e-04  2.1652e-03  1.0700e-03  2.9712e-02  4.4022e-04  0:01:19 1399
   602  4.4757e-04  2.1552e-03  1.0584e-03  2.9652e-02  4.3430e-04  0:01:03 1398
   603  4.4237e-04  2.1463e-03  1.0470e-03  2.9455e-02  4.2923e-04  0:00:50 1397
   604  4.3745e-04  2.1388e-03  1.0358e-03  2.7292e-02  4.2446e-04  0:00:40 1396
   605  4.3327e-04  2.1335e-03  1.0247e-03  2.6307e-02  4.2045e-04  0:00:32 1395

  iter  continuity  x-velocity  y-velocity  z-velocity      energy     time/iter
   606  4.2883e-04  2.1269e-03  1.0137e-03  2.5439e-02  4.1617e-04  0:00:26 1394
   607  4.2361e-04  2.1191e-03  1.0028e-03  2.4623e-02  4.1110e-04  0:04:59 1393
   608  4.1786e-04  2.1108e-03  9.9205e-04  2.3854e-02  4.0549e-04  0:03:59 1392
   609  4.1188e-04  2.1021e-03  9.8140e-04  2.3150e-02  3.9964e-04  0:03:11 1391
   610  4.0563e-04  2.0936e-03  9.7081e-04  2.2480e-02  3.9353e-04  0:02:33 1390
   611  3.9915e-04  2.0850e-03  9.6029e-04  2.1852e-02  3.8719e-04  0:02:02 1389
   612  3.9247e-04  2.0764e-03  9.4986e-04  2.1283e-02  3.8064e-04  0:01:38 1388
   613  3.8551e-04  2.0675e-03  9.3943e-04  2.0735e-02  3.7381e-04  0:01:18 1387
   614  3.7848e-04  2.0579e-03  9.2913e-04  2.0240e-02  3.6691e-04  0:01:02 1386
   615  3.7160e-04  2.0488e-03  9.1859e-04  1.9814e-02  3.6018e-04  0:00:50 1385
   616  3.6468e-04  2.0400e-03  9.0794e-04  1.9461e-02  3.5340e-04  0:00:40 1384

  iter  continuity  x-velocity  y-velocity  z-velocity      energy     time/iter
   617  3.5768e-04  2.0314e-03  8.9726e-04  1.9141e-02  3.4655e-04  0:00:32 1383
   618  3.5060e-04  2.0231e-03  8.8659e-04  1.8873e-02  3.3962e-04  0:05:02 1382
   619  3.4335e-04  2.0152e-03  8.7588e-04  1.8602e-02  3.3251e-04  0:04:01 1381
   620  3.3643e-04  2.0078e-03  8.6500e-04  1.8312e-02  3.2576e-04  0:03:13 1380
   621  3.2965e-04  2.0002e-03  8.5387e-04  1.8001e-02  3.1914e-04  0:02:34 1379
   622  3.2217e-04  1.9921e-03  8.4262e-04  1.7667e-02  3.1182e-04  0:02:03 1378
   623  3.1460e-04  1.9840e-03  8.3134e-04  1.7313e-02  3.0439e-04  0:01:39 1377
   624  3.0743e-04  1.9757e-03  8.1984e-04  1.6930e-02  2.9739e-04  0:01:19 1376
   625  3.0052e-04  1.9676e-03  8.0812e-04  1.6547e-02  2.9065e-04  0:01:03 1375
   626  2.9379e-04  1.9595e-03  7.9623e-04  1.6150e-02  2.8409e-04  0:00:50 1374
   627  2.8745e-04  1.9513e-03  7.8416e-04  1.5740e-02  2.7795e-04  0:00:40 1373

  iter  continuity  x-velocity  y-velocity  z-velocity      energy     time/iter
   628  2.8167e-04  1.9434e-03  7.7194e-04  1.5326e-02  2.7237e-04  0:00:32 1372
   629  2.7678e-04  1.9360e-03  7.5957e-04  1.4851e-02  2.6772e-04  0:00:26 1371
   630  2.7200e-04  1.9288e-03  7.4699e-04  1.4422e-02  2.6317e-04  0:04:55 1370
   631  2.6870e-04  1.9235e-03  7.3414e-04  1.4049e-02  2.6015e-04  0:03:55 1369
   632  2.5386e-04  1.9125e-03  7.2120e-04  1.3726e-02  2.4522e-04  0:03:08 1368
   633  2.4288e-04  1.9024e-03  7.0848e-04  1.3428e-02  2.3428e-04  0:02:30 1367
   634  2.3702e-04  1.8943e-03  6.9531e-04  1.3155e-02  2.2861e-04  0:02:00 1366
   635  2.3186e-04  1.8865e-03  6.8204e-04  1.2907e-02  2.2366e-04  0:01:36 1365
   636  2.2735e-04  1.8795e-03  6.6887e-04  1.2703e-02  2.1937e-04  0:01:17 1364
   637  2.2310e-04  1.8721e-03  6.5546e-04  1.2524e-02  2.1534e-04  0:01:01 1363
   638  2.1850e-04  1.8635e-03  6.4197e-04  1.2299e-02  2.1094e-04  0:00:49 1362

  iter  continuity  x-velocity  y-velocity  z-velocity      energy     time/iter
   639  2.1364e-04  1.8537e-03  6.2850e-04  2.2322e-02  2.0626e-04  0:00:39 1361
   640  2.0856e-04  1.8429e-03  6.1503e-04  3.3337e-02  2.0136e-04  0:00:31 1360
   641  2.0342e-04  1.8312e-03  6.0162e-04  4.0276e-02  1.9638e-04  0:04:57 1359
   642  1.9876e-04  1.8190e-03  5.8809e-04  4.4956e-02  1.9189e-04  0:03:57 1358
   643  1.9563e-04  1.8066e-03  5.7474e-04  5.1464e-02  1.8897e-04  0:03:10 1357
   644  1.9172e-04  1.7936e-03  5.6162e-04  5.7040e-02  1.8523e-04  0:02:32 1356
   645  1.8649e-04  1.7806e-03  5.4891e-04  6.0569e-02  1.8015e-04  0:02:01 1355
   646  1.8156e-04  1.7676e-03  5.3592e-04  6.2372e-02  1.7536e-04  0:01:37 1354
   647  1.7661e-04  1.7542e-03  5.2300e-04  6.0935e-02  1.7054e-04  0:01:17 1353
   648  1.7172e-04  1.7409e-03  5.1022e-04  6.2059e-02  1.6576e-04  0:01:02 1352
   649  1.6698e-04  1.7275e-03  4.9781e-04  6.3312e-02  1.6114e-04  0:00:50 1351

  iter  continuity  x-velocity  y-velocity  z-velocity      energy     time/iter
   650  1.6282e-04  1.7146e-03  4.8570e-04  6.3854e-02  1.5712e-04  0:00:40 1350
   651  1.6017e-04  1.7029e-03  4.7381e-04  6.3304e-02  1.5464e-04  0:00:32 1349
   652  1.5701e-04  1.6906e-03  4.6204e-04  6.1702e-02  1.5163e-04  0:00:25 1348
   653  1.5404e-04  1.6779e-03  4.5045e-04  5.9612e-02  1.4879e-04  0:04:50 1347
   654  1.4878e-04  1.6651e-03  4.3983e-04  5.7377e-02  1.4361e-04  0:03:52 1346
   655  1.4686e-04  1.6533e-03  4.2917e-04  5.6069e-02  1.4186e-04  0:03:05 1345
   656  1.4594e-04  1.6415e-03  4.1816e-04  5.6276e-02  1.4113e-04  0:02:28 1344
   657  1.4465e-04  1.6292e-03  4.0762e-04  5.6817e-02  1.4001e-04  0:01:58 1343
   658  1.4294e-04  1.6169e-03  3.9756e-04  5.9690e-02  1.3843e-04  0:01:35 1342
   659  1.3491e-04  1.6042e-03  3.8860e-04  6.4553e-02  1.3037e-04  0:01:16 1341
   660  1.3082e-04  1.5924e-03  3.7912e-04  7.0149e-02  1.2635e-04  0:01:00 1340

  iter  continuity  x-velocity  y-velocity  z-velocity      energy     time/iter
   661  1.2811e-04  1.5805e-03  3.6967e-04  8.3296e-02  1.2375e-04  0:00:48 1339
   662  1.2572e-04  1.5684e-03  3.6062e-04  8.8162e-02  1.2147e-04  0:00:39 1338
   663  1.2346e-04  1.5564e-03  3.5197e-04  8.1043e-02  1.1932e-04  0:00:31 1337
   664  1.2132e-04  1.5445e-03  3.4365e-04  7.2328e-02  1.1728e-04  0:04:52 1336
   665  1.1928e-04  1.5327e-03  3.3561e-04  6.3477e-02  1.1534e-04  0:03:53 1335
   666  1.1733e-04  1.5210e-03  3.2784e-04  5.7109e-02  1.1349e-04  0:03:07 1334
   667  1.1544e-04  1.5093e-03  3.2032e-04  5.3054e-02  1.1170e-04  0:02:29 1333
   668  1.1360e-04  1.4977e-03  3.1305e-04  5.0850e-02  1.0996e-04  0:01:59 1332
   669  1.1218e-04  1.4866e-03  3.0645e-04  5.0157e-02  1.0864e-04  0:01:35 1331
   670  1.1140e-04  1.4756e-03  2.9972e-04  5.0294e-02  1.0799e-04  0:01:16 1330
   671  1.1006e-04  1.4643e-03  2.9286e-04  5.1218e-02  1.0675e-04  0:01:01 1329

  iter  continuity  x-velocity  y-velocity  z-velocity      energy     time/iter
   672  1.0838e-04  1.4528e-03  2.8651e-04  5.2374e-02  1.0515e-04  0:00:49 1328
   673  1.0679e-04  1.4416e-03  2.8048e-04  5.3511e-02  1.0364e-04  0:00:39 1327
   674  1.0525e-04  1.4304e-03  2.7448e-04  5.5161e-02  1.0218e-04  0:00:31 1326
   675  1.0323e-04  1.4192e-03  2.6866e-04  6.0016e-02  1.0022e-04  0:04:50 1325
   676  1.0050e-04  1.4078e-03  2.6356e-04  6.4859e-02  9.7529e-05  0:03:52 1324
   677  9.9458e-05  1.3977e-03  2.5822e-04  6.7124e-02  9.6564e-05  0:03:05 1323
   678  9.9742e-05  1.3888e-03  2.5298e-04  6.9749e-02  9.6958e-05  0:02:28 1322
   679  1.0178e-04  1.3820e-03  2.5018e-04  7.1324e-02  9.9175e-05  0:01:58 1321
   680  1.0415e-04  1.3756e-03  2.4516e-04  7.0975e-02  1.0172e-04  0:01:35 1320
   681  1.0240e-04  1.3663e-03  2.3824e-04  7.2019e-02  9.9994e-05  0:01:16 1319
   682  1.0201e-04  1.3558e-03  2.3339e-04  7.3221e-02  9.9640e-05  0:01:00 1318

  iter  continuity  x-velocity  y-velocity  z-velocity      energy     time/iter
   683  1.0226e-04  1.3479e-03  2.3058e-04  7.4090e-02  9.9979e-05  0:00:48 1317
   684  1.0358e-04  1.3422e-03  2.2725e-04  7.4624e-02  1.0142e-04  0:05:02 1316
   685  1.0515e-04  1.3369e-03  2.2336e-04  8.0095e-02  1.0310e-04  0:04:01 1315
   686  1.0685e-04  1.3314e-03  2.2011e-04  8.0657e-02  1.0490e-04  0:03:13 1314
   687  1.0660e-04  1.3232e-03  2.1686e-04  7.8745e-02  1.0471e-04  0:02:34 1313
   688  1.0790e-04  1.3152e-03  2.1311e-04  7.7274e-02  1.0608e-04  0:02:03 1312
   689  1.0804e-04  1.3070e-03  2.0923e-04  7.5569e-02  1.0628e-04  0:01:39 1311
   690  1.0656e-04  1.2982e-03  2.0562e-04  7.3833e-02  1.0483e-04  0:01:19 1310
   691  1.0405e-04  1.2885e-03  2.0216e-04  7.2099e-02  1.0234e-04  0:01:03 1309
   692  1.0075e-04  1.2781e-03  1.9886e-04  7.0189e-02  9.9044e-05  0:00:50 1308
   693  9.6835e-05  1.2671e-03  1.9565e-04  6.8265e-02  9.5107e-05  0:00:40 1307

  iter  continuity  x-velocity  y-velocity  z-velocity      energy     time/iter
   694  9.3123e-05  1.2563e-03  1.9218e-04  6.6428e-02  9.1376e-05  0:00:32 1306
   695  8.9577e-05  1.2457e-03  1.8881e-04  6.4946e-02  8.7814e-05  0:00:26 1305
   696  8.6252e-05  1.2353e-03  1.8560e-04  6.3705e-02  8.4475e-05  0:04:41 1304
   697  8.3206e-05  1.2252e-03  1.8252e-04  6.2724e-02  8.1414e-05  0:03:45 1303
   698  8.0460e-05  1.2155e-03  1.7955e-04  6.1814e-02  7.8659e-05  0:03:00 1302
   699  7.8010e-05  1.2060e-03  1.7669e-04  6.0785e-02  7.6203e-05  0:02:24 1301
   700  7.5840e-05  1.1968e-03  1.7388e-04  5.9838e-02  7.4030e-05  0:01:55 1300
   701  7.3926e-05  1.1878e-03  1.7115e-04  5.8859e-02  7.2112e-05  0:01:32 1299
   702  7.2611e-05  1.1788e-03  1.6851e-04  5.7778e-02  7.0802e-05  0:01:13 1298
   703  7.1222e-05  1.1704e-03  1.6594e-04  5.6701e-02  6.9407e-05  0:00:59 1297
   704  6.9828e-05  1.1621e-03  1.6345e-04  5.5567e-02  6.8007e-05  0:00:47 1296

  iter  continuity  x-velocity  y-velocity  z-velocity      energy     time/iter
   705  6.8651e-05  1.1541e-03  1.6103e-04  5.4335e-02  6.6830e-05  0:00:38 1295
   706  6.7741e-05  1.1464e-03  1.5870e-04  5.3213e-02  6.5923e-05  0:00:30 1294
   707  6.6973e-05  1.1387e-03  1.5634e-04  5.2047e-02  6.5160e-05  0:00:24 1293
   708  6.6388e-05  1.1312e-03  1.5406e-04  5.0873e-02  6.4581e-05  0:04:38 1292
   709  6.5884e-05  1.1238e-03  1.5200e-04  4.9690e-02  6.4087e-05  0:03:42 1291
   710  6.5516e-05  1.1167e-03  1.5009e-04  4.8581e-02  6.3731e-05  0:02:57 1290
   711  6.5306e-05  1.1099e-03  1.4834e-04  4.7518e-02  6.3539e-05  0:02:22 1289
   712  6.5082e-05  1.1033e-03  1.4663e-04  4.6373e-02  6.3330e-05  0:01:53 1288
   713  6.4935e-05  1.0969e-03  1.4494e-04  4.5267e-02  6.3196e-05  0:01:31 1287
   714  6.4870e-05  1.0905e-03  1.4342e-04  4.4251e-02  6.3144e-05  0:01:12 1286
   715  6.3826e-05  1.0846e-03  1.4252e-04  4.3243e-02  6.2091e-05  0:00:58 1285

  iter  continuity  x-velocity  y-velocity  z-velocity      energy     time/iter
   716  6.3434e-05  1.0793e-03  1.4130e-04  4.2327e-02  6.1706e-05  0:00:46 1284
   717  6.3361e-05  1.0739e-03  1.4003e-04  4.1536e-02  6.1644e-05  0:00:37 1283
   718  6.3432e-05  1.0685e-03  1.3886e-04  4.0562e-02  6.1727e-05  0:00:30 1282
   719  6.3550e-05  1.0632e-03  1.3780e-04  4.4755e-02  6.1855e-05  0:00:24 1281
   720  6.3681e-05  1.0580e-03  1.3685e-04  5.0532e-02  6.1995e-05  0:04:35 1280
   721  6.3833e-05  1.0530e-03  1.3600e-04  5.6398e-02  6.2156e-05  0:03:40 1279
   722  6.4015e-05  1.0482e-03  1.3526e-04  6.2105e-02  6.2346e-05  0:02:56 1278
   723  6.4227e-05  1.0435e-03  1.3460e-04  6.7148e-02  6.2565e-05  0:02:20 1277
   724  6.4462e-05  1.0391e-03  1.3405e-04  7.2103e-02  6.2808e-05  0:01:52 1276
   725  6.4677e-05  1.0348e-03  1.3358e-04  8.0217e-02  6.3031e-05  0:01:30 1275
   726  6.4792e-05  1.0306e-03  1.3318e-04  9.3851e-02  6.3150e-05  0:01:12 1274

  iter  continuity  x-velocity  y-velocity  z-velocity      energy     time/iter
   727  6.4978e-05  1.0266e-03  1.3288e-04  1.3600e-01  6.3342e-05  0:00:57 1273
   728  6.5121e-05  1.0227e-03  1.3266e-04  1.6367e-01  6.3490e-05  0:00:46 1272
   729  6.5183e-05  1.0188e-03  1.3253e-04  1.8483e-01  6.3555e-05  0:00:37 1271
   730  6.5209e-05  1.0150e-03  1.3245e-04  1.9767e-01  6.3582e-05  0:00:29 1270
   731  6.5190e-05  1.0115e-03  1.3242e-04  2.0280e-01  6.3565e-05  0:04:37 1269
   732  6.5130e-05  1.0080e-03  1.3245e-04  2.0400e-01  6.3506e-05  0:03:42 1268
   733  6.5055e-05  1.0048e-03  1.3251e-04  2.0197e-01  6.3433e-05  0:02:57 1267
   734  6.4905e-05  1.0017e-03  1.3261e-04  1.9864e-01  6.3283e-05  0:02:22 1266
   735  6.4726e-05  9.9868e-04  1.3275e-04  1.9475e-01  6.3107e-05  0:01:53 1265
   736  6.4515e-05  9.9586e-04  1.3290e-04  1.9114e-01  6.2898e-05  0:01:30 1264
   737  6.4272e-05  9.9319e-04  1.3308e-04  1.8792e-01  6.2659e-05  0:01:12 1263

  iter  continuity  x-velocity  y-velocity  z-velocity      energy     time/iter
   738  6.4000e-05  9.9065e-04  1.3326e-04  1.8589e-01  6.2390e-05  0:00:58 1262
   739  6.3698e-05  9.8825e-04  1.3345e-04  1.8628e-01  6.2092e-05  0:00:46 1261
   740  6.3367e-05  9.8598e-04  1.3363e-04  1.8861e-01  6.1765e-05  0:00:37 1260
   741  6.3007e-05  9.8383e-04  1.3380e-04  1.9274e-01  6.1410e-05  0:04:41 1259
   742  6.2619e-05  9.8180e-04  1.3394e-04  1.9812e-01  6.1028e-05  0:03:45 1258
   743  6.2205e-05  9.7988e-04  1.3406e-04  2.1520e-01  6.0621e-05  0:03:00 1257
   744  6.1769e-05  9.7806e-04  1.3415e-04  2.3959e-01  6.0192e-05  0:02:24 1256
   745  6.1308e-05  9.7634e-04  1.3421e-04  2.6479e-01  5.9740e-05  0:01:55 1255
   746  6.0826e-05  9.7470e-04  1.3422e-04  2.8550e-01  5.9267e-05  0:01:32 1254
   747  6.0317e-05  9.7314e-04  1.3418e-04  3.0759e-01  5.8768e-05  0:01:13 1253
   748  5.9815e-05  9.7167e-04  1.3409e-04  3.3331e-01  5.8278e-05  0:00:59 1252

  iter  continuity  x-velocity  y-velocity  z-velocity      energy     time/iter
   749  5.9261e-05  9.7026e-04  1.3395e-04  3.9604e-01  5.7734e-05  0:00:47 1251
   750  5.8661e-05  9.6892e-04  1.3375e-04  4.3144e-01  5.7144e-05  0:00:37 1250
   751  5.8027e-05  9.6764e-04  1.3350e-04  4.2831e-01  5.6520e-05  0:00:30 1249
   752  5.7385e-05  9.6640e-04  1.3319e-04  4.1886e-01  5.5888e-05  0:00:24 1248
   753  5.6505e-05  9.6516e-04  1.3283e-04  4.1704e-01  5.5012e-05  0:04:29 1247
   754  5.5765e-05  9.6412e-04  1.3243e-04  4.3499e-01  5.4280e-05  0:03:35 1246
   755  5.5140e-05  9.6319e-04  1.3198e-04  4.5302e-01  5.3664e-05  0:02:52 1245
   756  5.4608e-05  9.6231e-04  1.3146e-04  4.5053e-01  5.3144e-05  0:02:17 1244
   757  5.4109e-05  9.6143e-04  1.3088e-04  4.4732e-01  5.2658e-05  0:01:50 1243
   758  5.2966e-05  9.5996e-04  1.3025e-04  4.4524e-01  5.1509e-05  0:01:28 1242
   759  5.2015e-05  9.5846e-04  1.2960e-04  4.1885e-01  5.0556e-05  0:01:10 1241

  iter  continuity  x-velocity  y-velocity  z-velocity      energy     time/iter
   760  5.1396e-05  9.5714e-04  1.2889e-04  3.9446e-01  4.9943e-05  0:00:56 1240
   761  5.0878e-05  9.5592e-04  1.2815e-04  3.7158e-01  4.9432e-05  0:00:45 1239
   762  5.0442e-05  9.5480e-04  1.2737e-04  3.5301e-01  4.9005e-05  0:00:36 1238
   763  5.0073e-05  9.5371e-04  1.2656e-04  3.3501e-01  4.8645e-05  0:00:29 1237
   764  4.9744e-05  9.5264e-04  1.2574e-04  3.1814e-01  4.8326e-05  0:04:30 1236
   765  4.9451e-05  9.5158e-04  1.2491e-04  3.0385e-01  4.8042e-05  0:03:36 1235
   766  4.9190e-05  9.5052e-04  1.2408e-04  2.9200e-01  4.7790e-05  0:02:53 1234
   767  4.8965e-05  9.4946e-04  1.2325e-04  2.8168e-01  4.7574e-05  0:02:18 1233
   768  4.8772e-05  9.4840e-04  1.2243e-04  2.7173e-01  4.7389e-05  0:01:50 1232
   769  4.8613e-05  9.4732e-04  1.2162e-04  2.6214e-01  4.7238e-05  0:01:28 1231
   770  4.8491e-05  9.4623e-04  1.2082e-04  2.5286e-01  4.7124e-05  0:01:10 1230

  iter  continuity  x-velocity  y-velocity  z-velocity      energy     time/iter
   771  4.8401e-05  9.4512e-04  1.2002e-04  2.4368e-01  4.7041e-05  0:00:56 1229
   772  4.8341e-05  9.4398e-04  1.1925e-04  2.3476e-01  4.6988e-05  0:00:45 1228
   773  4.8187e-05  9.4281e-04  1.1851e-04  2.2629e-01  4.6838e-05  0:00:36 1227
   774  4.8199e-05  9.4165e-04  1.1780e-04  2.1927e-01  4.6858e-05  0:00:29 1226
   775  4.8242e-05  9.4048e-04  1.1709e-04  2.1392e-01  4.6909e-05  0:04:28 1225
   776  4.8305e-05  9.3925e-04  1.1644e-04  2.0967e-01  4.6980e-05  0:03:34 1224
   777  4.8353e-05  9.3800e-04  1.1583e-04  2.0626e-01  4.7034e-05  0:02:51 1223
   778  4.8387e-05  9.3671e-04  1.1526e-04  2.0374e-01  4.7074e-05  0:02:17 1222
   779  4.8411e-05  9.3539e-04  1.1475e-04  2.0096e-01  4.7102e-05  0:01:49 1221
   780  4.8444e-05  9.3404e-04  1.1426e-04  1.9886e-01  4.7140e-05  0:01:27 1220
   781  4.8474e-05  9.3266e-04  1.1379e-04  1.9794e-01  4.7175e-05  0:01:10 1219

  iter  continuity  x-velocity  y-velocity  z-velocity      energy     time/iter
   782  4.8499e-05  9.3124e-04  1.1336e-04  1.9659e-01  4.7204e-05  0:00:56 1218
   783  4.8523e-05  9.2982e-04  1.1297e-04  1.9565e-01  4.7231e-05  0:00:45 1217
   784  4.8542e-05  9.2836e-04  1.1260e-04  1.9562e-01  4.7253e-05  0:00:36 1216
   785  4.8544e-05  9.2686e-04  1.1226e-04  1.9672e-01  4.7259e-05  0:00:29 1215
   786  4.8475e-05  9.2524e-04  1.1194e-04  1.9710e-01  4.7190e-05  0:04:26 1214
   787  4.8434e-05  9.2361e-04  1.1165e-04  1.8796e-01  4.7150e-05  0:03:32 1213
   788  4.8322e-05  9.2185e-04  1.1138e-04  1.7583e-01  4.7037e-05  0:02:50 1212
   789  4.8400e-05  9.2017e-04  1.1119e-04  2.1190e-01  4.7119e-05  0:02:16 1211
   790  4.8551e-05  9.1848e-04  1.1102e-04  2.8894e-01  4.7276e-05  0:01:48 1210
   791  4.8680e-05  9.1677e-04  1.1084e-04  3.5327e-01  4.7408e-05  0:01:27 1209
   792  4.8782e-05  9.1507e-04  1.1066e-04  3.9884e-01  4.7512e-05  0:01:09 1208

  iter  continuity  x-velocity  y-velocity  z-velocity      energy     time/iter
   793  4.8848e-05  9.1338e-04  1.1050e-04  4.2843e-01  4.7579e-05  0:00:55 1207
   794  4.8878e-05  9.1167e-04  1.1032e-04  4.4782e-01  4.7608e-05  0:00:44 1206
   795  4.8877e-05  9.0995e-04  1.1014e-04  4.6158e-01  4.7605e-05  0:00:35 1205
   796  4.8858e-05  9.0820e-04  1.0995e-04  4.7632e-01  4.7584e-05  0:00:28 1204
   797  4.8834e-05  9.0643e-04  1.0976e-04  4.7909e-01  4.7557e-05  0:00:23 1203
   798  4.8816e-05  9.0464e-04  1.0955e-04  4.7802e-01  4.7536e-05  0:04:18 1202
   799  4.8684e-05  9.0283e-04  1.0941e-04  4.7629e-01  4.7398e-05  0:03:27 1201
   800  4.8732e-05  9.0105e-04  1.0926e-04  4.8406e-01  4.7445e-05  0:02:45 1200
   801  4.8877e-05  8.9910e-04  1.0905e-04  4.9377e-01  4.7591e-05  0:02:12 1199
   802  4.9002e-05  8.9711e-04  1.0879e-04  4.9943e-01  4.7714e-05  0:01:46 1198
   803  4.9131e-05  8.9509e-04  1.0854e-04  4.9875e-01  4.7841e-05  0:01:24 1197

  iter  continuity  x-velocity  y-velocity  z-velocity      energy     time/iter
   804  4.9290e-05  8.9306e-04  1.0830e-04  4.9043e-01  4.7997e-05  0:01:07 1196
   805  4.9502e-05  8.9101e-04  1.0808e-04  4.8508e-01  4.8209e-05  0:00:54 1195
   806  4.9740e-05  8.8896e-04  1.0789e-04  4.6084e-01  4.8445e-05  0:00:43 1194
   807  4.9914e-05  8.8679e-04  1.0772e-04  4.7935e-01  4.8614e-05  0:00:34 1193
   808  5.0111e-05  8.8440e-04  1.0756e-04  5.4747e-01  4.8805e-05  0:00:28 1192
   809  5.0370e-05  8.8213e-04  1.0745e-04  5.3826e-01  4.9059e-05  0:00:22 1191
[...]

  iter  continuity  x-velocity  y-velocity  z-velocity      energy     time/iter
  1794  8.0633e-07  4.6514e-06  1.7968e-06  6.7811e-03  7.8250e-07  0:00:06  206
  1795  8.0349e-07  4.6385e-06  1.7892e-06  6.7547e-03  7.7977e-07  0:00:05  205
  1796  8.0069e-07  4.6256e-06  1.7817e-06  6.7280e-03  7.7708e-07  0:00:45  204
  1797  7.9794e-07  4.6127e-06  1.7742e-06  6.7011e-03  7.7443e-07  0:00:35  203
  1798  7.9523e-07  4.5998e-06  1.7669e-06  6.6740e-03  7.7181e-07  0:00:28  202
  1799  7.9255e-07  4.5871e-06  1.7597e-06  6.6467e-03  7.6924e-07  0:00:22  201
  1800  7.8992e-07  4.5743e-06  1.7526e-06  6.6191e-03  7.6671e-07  0:00:18  200
  1801  7.8733e-07  4.5616e-06  1.7455e-06  6.5912e-03  7.6421e-07  0:00:14  199
  1802  7.8478e-07  4.5490e-06  1.7386e-06  6.5632e-03  7.6175e-07  0:00:11  198
  1803  7.8226e-07  4.5364e-06  1.7318e-06  6.5349e-03  7.5933e-07  0:00:09  197
  1804  7.7978e-07  4.5239e-06  1.7251e-06  6.5064e-03  7.5695e-07  0:00:07  196

  iter  continuity  x-velocity  y-velocity  z-velocity      energy     time/iter
  1805  7.7734e-07  4.5114e-06  1.7184e-06  6.4777e-03  7.5460e-07  0:00:06  195
  1806  7.7494e-07  4.4989e-06  1.7119e-06  6.4488e-03  7.5229e-07  0:00:05  194
  1807  7.7258e-07  4.4865e-06  1.7055e-06  6.4198e-03  7.5002e-07  0:00:04  193
  1808  7.7025e-07  4.4742e-06  1.6991e-06  6.3906e-03  7.4777e-07  0:00:41  192
  1809  7.6795e-07  4.4619e-06  1.6928e-06  6.3613e-03  7.4556e-07  0:00:33  191
  1810  7.6569e-07  4.4496e-06  1.6867e-06  6.3318e-03  7.4339e-07  0:00:26  190
  1811  7.6346e-07  4.4374e-06  1.6806e-06  6.3022e-03  7.4125e-07  0:00:21  189
  1812  7.6126e-07  4.4252e-06  1.6746e-06  6.2725e-03  7.3913e-07  0:00:17  188
  1813  7.5910e-07  4.4131e-06  1.6686e-06  6.2426e-03  7.3705e-07  0:00:13  187
  1814  7.5696e-07  4.4010e-06  1.6628e-06  6.2127e-03  7.3500e-07  0:00:10  186
  1815  7.5486e-07  4.3890e-06  1.6571e-06  6.1827e-03  7.3298e-07  0:00:08  185

  iter  continuity  x-velocity  y-velocity  z-velocity      energy     time/iter
  1816  7.5278e-07  4.3770e-06  1.6514e-06  6.1526e-03  7.3098e-07  0:00:07  184
  1817  7.5074e-07  4.3651e-06  1.6458e-06  6.1224e-03  7.2901e-07  0:00:05  183
  1818  7.4872e-07  4.3532e-06  1.6403e-06  6.0921e-03  7.2707e-07  0:00:04  182
  1819  7.4672e-07  4.3413e-06  1.6348e-06  6.0618e-03  7.2515e-07  0:00:03  181
  1820  7.4475e-07  4.3295e-06  1.6295e-06  6.0315e-03  7.2326e-07  0:00:03  180
  1821  7.4281e-07  4.3177e-06  1.6242e-06  6.0012e-03  7.2139e-07  0:00:38  179
  1822  7.4088e-07  4.3060e-06  1.6190e-06  5.9708e-03  7.1954e-07  0:00:30  178
  1823  7.3898e-07  4.2943e-06  1.6138e-06  5.9405e-03  7.1771e-07  0:00:24  177
  1824  7.3710e-07  4.2827e-06  1.6087e-06  5.9101e-03  7.1591e-07  0:00:19  176
  1825  7.3524e-07  4.2711e-06  1.6037e-06  5.8797e-03  7.1412e-07  0:00:15  175
  1826  7.3340e-07  4.2595e-06  1.5988e-06  5.8494e-03  7.1235e-07  0:00:12  174

  iter  continuity  x-velocity  y-velocity  z-velocity      energy     time/iter
  1827  7.3158e-07  4.2479e-06  1.5939e-06  5.8190e-03  7.1059e-07  0:00:10  173
  1828  7.2977e-07  4.2364e-06  1.5891e-06  5.7887e-03  7.0886e-07  0:00:08  172
  1829  7.2798e-07  4.2249e-06  1.5843e-06  5.7584e-03  7.0713e-07  0:00:06  171
  1830  7.2620e-07  4.2135e-06  1.5796e-06  5.7282e-03  7.0543e-07  0:00:05  170
  1831  7.2444e-07  4.2021e-06  1.5750e-06  5.6980e-03  7.0373e-07  0:00:04  169
  1832  7.2269e-07  4.1907e-06  1.5704e-06  5.6679e-03  7.0205e-07  0:00:37  168
  1833  7.2095e-07  4.1793e-06  1.5659e-06  5.6378e-03  7.0038e-07  0:00:29  167
  1834  7.1922e-07  4.1679e-06  1.5614e-06  5.6078e-03  6.9871e-07  0:00:23  166
  1835  7.1751e-07  4.1566e-06  1.5570e-06  5.5779e-03  6.9706e-07  0:00:18  165
  1836  7.1580e-07  4.1453e-06  1.5527e-06  5.5480e-03  6.9542e-07  0:00:15  164
  1837  7.1410e-07  4.1340e-06  1.5483e-06  5.5183e-03  6.9378e-07  0:00:12  163

  iter  continuity  x-velocity  y-velocity  z-velocity      energy     time/iter
  1838  7.1241e-07  4.1227e-06  1.5441e-06  5.4886e-03  6.9216e-07  0:00:09  162
  1839  7.1073e-07  4.1114e-06  1.5398e-06  5.4590e-03  6.9054e-07  0:00:07  161
  1840  7.0905e-07  4.1002e-06  1.5357e-06  5.4295e-03  6.8892e-07  0:00:06  160
  1841  7.0738e-07  4.0889e-06  1.5315e-06  5.4001e-03  6.8731e-07  0:00:05  159
  1842  7.0571e-07  4.0777e-06  1.5274e-06  5.3708e-03  6.8571e-07  0:00:04  158
  1843  7.0405e-07  4.0665e-06  1.5233e-06  5.3416e-03  6.8411e-07  0:00:03  157
  1844  7.0240e-07  4.0552e-06  1.5193e-06  5.3125e-03  6.8251e-07  0:00:34  156
  1845  7.0074e-07  4.0440e-06  1.5153e-06  5.2835e-03  6.8092e-07  0:00:27  155
  1846  6.9910e-07  4.0327e-06  1.5113e-06  5.2546e-03  6.7933e-07  0:00:21  154
  1847  6.9745e-07  4.0215e-06  1.5074e-06  5.2259e-03  6.7775e-07  0:00:17  153
  1848  6.9581e-07  4.0102e-06  1.5035e-06  5.1973e-03  6.7616e-07  0:00:13  152

  iter  continuity  x-velocity  y-velocity  z-velocity      energy     time/iter
  1849  6.9417e-07  3.9990e-06  1.4996e-06  5.1687e-03  6.7458e-07  0:00:11  151
  1850  6.9253e-07  3.9877e-06  1.4957e-06  5.1402e-03  6.7300e-07  0:00:08  150
  1851  6.9089e-07  3.9764e-06  1.4919e-06  5.1118e-03  6.7142e-07  0:00:07  149
  1852  6.8926e-07  3.9651e-06  1.4880e-06  5.0836e-03  6.6985e-07  0:00:05  148
  1853  6.8763e-07  3.9538e-06  1.4842e-06  5.0555e-03  6.6827e-07  0:00:04  147
  1854  6.8599e-07  3.9424e-06  1.4804e-06  5.0276e-03  6.6669e-07  0:00:03  146
  1855  6.8436e-07  3.9311e-06  1.4767e-06  4.9998e-03  6.6512e-07  0:00:32  145
  1856  6.8273e-07  3.9197e-06  1.4729e-06  4.9722e-03  6.6355e-07  0:00:25  144
  1857  6.8110e-07  3.9083e-06  1.4692e-06  4.9447e-03  6.6197e-07  0:00:20  143
  1858  6.7947e-07  3.8968e-06  1.4655e-06  4.9174e-03  6.6040e-07  0:00:16  142
  1859  6.7784e-07  3.8853e-06  1.4617e-06  4.8902e-03  6.5882e-07  0:00:13  141

  iter  continuity  x-velocity  y-velocity  z-velocity      energy     time/iter
  1860  6.7621e-07  3.8738e-06  1.4580e-06  4.8631e-03  6.5725e-07  0:00:10  140
  1861  6.7458e-07  3.8623e-06  1.4543e-06  4.8362e-03  6.5567e-07  0:00:08  139
  1862  6.7295e-07  3.8507e-06  1.4507e-06  4.8095e-03  6.5409e-07  0:00:06  138
  1863  6.7131e-07  3.8391e-06  1.4470e-06  4.7828e-03  6.5251e-07  0:00:05  137
  1864  6.6968e-07  3.8274e-06  1.4433e-06  4.7564e-03  6.5094e-07  0:00:04  136
  1865  6.6804e-07  3.8157e-06  1.4397e-06  4.7300e-03  6.4935e-07  0:00:03  135
  1866  6.6641e-07  3.8040e-06  1.4360e-06  4.7039e-03  6.4777e-07  0:00:03  134
  1867  6.6477e-07  3.7922e-06  1.4323e-06  4.6778e-03  6.4619e-07  0:00:29  133
  1868  6.6313e-07  3.7803e-06  1.4287e-06  4.6519e-03  6.4460e-07  0:00:23  132
  1869  6.6148e-07  3.7684e-06  1.4250e-06  4.6262e-03  6.4301e-07  0:00:18  131
  1870  6.5984e-07  3.7565e-06  1.4214e-06  4.6006e-03  6.4142e-07  0:00:14  130

  iter  continuity  x-velocity  y-velocity  z-velocity      energy     time/iter
  1871  6.5819e-07  3.7445e-06  1.4178e-06  4.5751e-03  6.3982e-07  0:00:11  129
  1872  6.5654e-07  3.7325e-06  1.4141e-06  4.5498e-03  6.3823e-07  0:00:09  128
  1873  6.5488e-07  3.7204e-06  1.4105e-06  4.5246e-03  6.3662e-07  0:00:07  127
  1874  6.5322e-07  3.7082e-06  1.4068e-06  4.4995e-03  6.3502e-07  0:00:06  126
  1875  6.5156e-07  3.6960e-06  1.4032e-06  4.4746e-03  6.3341e-07  0:00:05  125
  1876  6.4990e-07  3.6837e-06  1.3996e-06  4.4498e-03  6.3180e-07  0:00:04  124
  1877  6.4823e-07  3.6714e-06  1.3959e-06  4.4252e-03  6.3018e-07  0:00:27  123
  1878  6.4655e-07  3.6590e-06  1.3923e-06  4.4007e-03  6.2856e-07  0:00:22  122
  1879  6.4487e-07  3.6466e-06  1.3887e-06  4.3763e-03  6.2693e-07  0:00:17  121
  1880  6.4319e-07  3.6341e-06  1.3850e-06  4.3521e-03  6.2530e-07  0:00:14  120
  1881  6.4150e-07  3.6215e-06  1.3814e-06  4.3279e-03  6.2366e-07  0:00:11  119

  iter  continuity  x-velocity  y-velocity  z-velocity      energy     time/iter
  1882  6.3980e-07  3.6089e-06  1.3777e-06  4.3039e-03  6.2202e-07  0:00:09  118
  1883  6.3810e-07  3.5962e-06  1.3741e-06  4.2801e-03  6.2037e-07  0:00:07  117
  1884  6.3640e-07  3.5834e-06  1.3704e-06  4.2563e-03  6.1872e-07  0:00:05  116
  1885  6.3469e-07  3.5706e-06  1.3668e-06  4.2327e-03  6.1706e-07  0:00:04  115
  1886  6.3297e-07  3.5577e-06  1.3631e-06  4.2092e-03  6.1539e-07  0:00:03  114
  1887  6.3125e-07  3.5447e-06  1.3595e-06  4.1858e-03  6.1372e-07  0:00:03  113
  1888  6.2952e-07  3.5317e-06  1.3558e-06  4.1625e-03  6.1205e-07  0:00:02  112
  1889  6.2763e-07  3.5174e-06  1.3522e-06  4.1393e-03  6.1020e-07  0:00:24  111
  1890  6.2485e-07  3.4946e-06  1.3485e-06  4.1024e-03  6.0745e-07  0:00:19  110
  1891  6.2274e-07  3.4755e-06  1.3446e-06  4.2699e-03  6.0538e-07  0:00:15  109
  1892  6.2083e-07  3.4583e-06  1.3409e-06  5.2238e-03  6.0352e-07  0:00:12  108

  iter  continuity  x-velocity  y-velocity  z-velocity      energy     time/iter
  1893  6.1781e-07  3.4324e-06  1.3371e-06  6.8475e-03  6.0052e-07  0:00:09  107
  1894  6.1460e-07  3.4018e-06  1.3332e-06  8.3174e-03  5.9733e-07  0:00:07  106
  1895  6.1236e-07  3.3784e-06  1.3292e-06  9.1286e-03  5.9513e-07  0:00:06  105
  1896  6.1037e-07  3.3585e-06  1.3253e-06  9.5943e-03  5.9319e-07  0:00:05  104
  1897  6.0846e-07  3.3404e-06  1.3214e-06  9.7966e-03  5.9133e-07  0:00:04  103
  1898  6.0655e-07  3.3233e-06  1.3176e-06  9.7830e-03  5.8947e-07  0:00:03  102
  1899  6.0461e-07  3.3068e-06  1.3137e-06  9.6091e-03  5.8757e-07  0:00:02  101
  1900  6.0263e-07  3.2907e-06  1.3099e-06  9.3327e-03  5.8565e-07  0:00:22  100
  1901  6.0064e-07  3.2748e-06  1.3061e-06  9.0048e-03  5.8369e-07  0:00:17   99
  1902  5.9863e-07  3.2590e-06  1.3023e-06  8.6634e-03  5.8173e-07  0:00:14   98
  1903  5.9662e-07  3.2433e-06  1.2985e-06  8.3328e-03  5.7976e-07  0:00:11   97

  iter  continuity  x-velocity  y-velocity  z-velocity      energy     time/iter
  1904  5.9461e-07  3.2277e-06  1.2947e-06  8.0259e-03  5.7781e-07  0:00:09   96
  1905  5.9262e-07  3.2122e-06  1.2908e-06  7.7484e-03  5.7586e-07  0:00:07   95
  1906  5.9065e-07  3.1967e-06  1.2870e-06  7.5025e-03  5.7394e-07  0:00:05   94
  1907  5.8870e-07  3.1812e-06  1.2832e-06  7.2890e-03  5.7203e-07  0:00:04   93
  1908  5.8676e-07  3.1658e-06  1.2793e-06  7.1081e-03  5.7014e-07  0:00:03   92
  1909  5.8485e-07  3.1504e-06  1.2755e-06  6.9594e-03  5.6827e-07  0:00:03   91
  1910  5.8294e-07  3.1350e-06  1.2717e-06  6.8407e-03  5.6642e-07  0:00:02   90
  1911  5.8106e-07  3.1197e-06  1.2678e-06  6.7487e-03  5.6458e-07  0:00:02   89
  1912  5.7918e-07  3.1045e-06  1.2640e-06  6.6788e-03  5.6276e-07  0:00:19   88
  1913  5.7732e-07  3.0892e-06  1.2601e-06  6.6257e-03  5.6094e-07  0:00:15   87
  1914  5.7546e-07  3.0740e-06  1.2563e-06  6.5841e-03  5.5914e-07  0:00:12   86

  iter  continuity  x-velocity  y-velocity  z-velocity      energy     time/iter
  1915  5.7361e-07  3.0588e-06  1.2525e-06  6.5493e-03  5.5734e-07  0:00:09   85
  1916  5.7177e-07  3.0436e-06  1.2486e-06  6.5176e-03  5.5555e-07  0:00:07   84
  1917  5.6993e-07  3.0284e-06  1.2448e-06  6.4862e-03  5.5376e-07  0:00:06   83
  1918  5.6810e-07  3.0132e-06  1.2409e-06  6.4530e-03  5.5198e-07  0:00:05   82
  1919  5.6627e-07  2.9980e-06  1.2371e-06  6.4169e-03  5.5020e-07  0:00:04   81
  1920  5.6443e-07  2.9828e-06  1.2332e-06  6.3772e-03  5.4842e-07  0:00:03   80
  1921  5.6261e-07  2.9676e-06  1.2294e-06  6.3340e-03  5.4664e-07  0:00:02   79
  1922  5.6078e-07  2.9523e-06  1.2255e-06  6.2874e-03  5.4486e-07  0:00:02   78
  1923  5.5895e-07  2.9371e-06  1.2217e-06  6.2377e-03  5.4309e-07  0:00:01   77
  1924  5.5713e-07  2.9219e-06  1.2178e-06  6.1856e-03  5.4132e-07  0:00:16   76
  1925  5.5531e-07  2.9066e-06  1.2140e-06  6.1314e-03  5.3955e-07  0:00:13   75

  iter  continuity  x-velocity  y-velocity  z-velocity      energy     time/iter
  1926  5.5349e-07  2.8913e-06  1.2101e-06  6.0756e-03  5.3778e-07  0:00:10   74
  1927  5.5168e-07  2.8761e-06  1.2063e-06  6.0189e-03  5.3602e-07  0:00:08   73
  1928  5.4986e-07  2.8608e-06  1.2024e-06  5.9614e-03  5.3425e-07  0:00:06   72
  1929  5.4805e-07  2.8455e-06  1.1986e-06  5.9038e-03  5.3249e-07  0:00:05   71
  1930  5.4625e-07  2.8301e-06  1.1947e-06  5.8461e-03  5.3074e-07  0:00:04   70
  1931  5.4444e-07  2.8148e-06  1.1909e-06  5.7888e-03  5.2898e-07  0:00:03   69
  1932  5.4264e-07  2.7995e-06  1.1870e-06  5.7320e-03  5.2723e-07  0:00:02   68
  1933  5.4085e-07  2.7842e-06  1.1832e-06  5.6758e-03  5.2549e-07  0:00:02   67
  1934  5.3905e-07  2.7688e-06  1.1793e-06  5.6203e-03  5.2374e-07  0:00:02   66
  1935  5.3726e-07  2.7535e-06  1.1755e-06  5.5655e-03  5.2200e-07  0:00:14   65
  1936  5.3546e-07  2.7381e-06  1.1717e-06  5.5115e-03  5.2025e-07  0:00:11   64

  iter  continuity  x-velocity  y-velocity  z-velocity      energy     time/iter
  1937  5.3367e-07  2.7228e-06  1.1678e-06  5.4583e-03  5.1851e-07  0:00:09   63
  1938  5.3188e-07  2.7075e-06  1.1640e-06  5.4058e-03  5.1677e-07  0:00:07   62
  1939  5.3009e-07  2.6922e-06  1.1602e-06  5.3540e-03  5.1503e-07  0:00:05   61
  1940  5.2830e-07  2.6768e-06  1.1564e-06  5.3029e-03  5.1328e-07  0:00:04   60
  1941  5.2650e-07  2.6615e-06  1.1526e-06  5.2524e-03  5.1154e-07  0:00:03   59
  1942  5.2471e-07  2.6462e-06  1.1488e-06  5.2025e-03  5.0979e-07  0:00:03   58
  1943  5.2291e-07  2.6309e-06  1.1450e-06  5.1531e-03  5.0805e-07  0:00:02   57
  1944  5.2112e-07  2.6157e-06  1.1412e-06  5.1042e-03  5.0630e-07  0:00:02   56
  1945  5.1932e-07  2.6004e-06  1.1374e-06  5.0558e-03  5.0455e-07  0:00:01   55
  1946  5.1752e-07  2.5851e-06  1.1336e-06  5.0078e-03  5.0280e-07  0:00:01   54
  1947  5.1571e-07  2.5698e-06  1.1298e-06  4.9607e-03  5.0104e-07  0:00:11   53

  iter  continuity  x-velocity  y-velocity  z-velocity      energy     time/iter
  1948  5.1391e-07  2.5546e-06  1.1260e-06  4.9148e-03  4.9929e-07  0:00:09   52
  1949  5.1210e-07  2.5394e-06  1.1222e-06  4.8697e-03  4.9753e-07  0:00:07   51
  1950  5.1029e-07  2.5241e-06  1.1184e-06  4.8251e-03  4.9577e-07  0:00:06   50
  1951  5.0848e-07  2.5089e-06  1.1146e-06  4.7807e-03  4.9401e-07  0:00:04   49
  1952  5.0667e-07  2.4938e-06  1.1109e-06  4.7365e-03  4.9224e-07  0:00:03   48
  1953  5.0485e-07  2.4786e-06  1.1071e-06  4.6925e-03  4.9047e-07  0:00:03   47
  1954  5.0303e-07  2.4635e-06  1.1033e-06  4.6486e-03  4.8870e-07  0:00:02   46
  1955  5.0121e-07  2.4484e-06  1.0995e-06  4.6048e-03  4.8693e-07  0:00:02   45
  1956  4.9939e-07  2.4333e-06  1.0957e-06  4.5613e-03  4.8516e-07  0:00:01   44
  1957  4.9757e-07  2.4182e-06  1.0919e-06  4.5180e-03  4.8339e-07  0:00:01   43
  1958  4.9575e-07  2.4032e-06  1.0882e-06  4.4751e-03  4.8161e-07  0:00:01   42

  iter  continuity  x-velocity  y-velocity  z-velocity      energy     time/iter
  1959  4.9393e-07  2.3882e-06  1.0844e-06  4.4324e-03  4.7984e-07  0:00:09   41
  1960  4.9210e-07  2.3732e-06  1.0806e-06  4.3902e-03  4.7806e-07  0:00:07   40
  1961  4.9028e-07  2.3583e-06  1.0768e-06  4.3484e-03  4.7629e-07  0:00:05   39
  1962  4.8845e-07  2.3434e-06  1.0730e-06  4.3069e-03  4.7451e-07  0:00:04   38
  1963  4.8663e-07  2.3285e-06  1.0692e-06  4.2658e-03  4.7274e-07  0:00:03   37
  1964  4.8481e-07  2.3136e-06  1.0655e-06  4.2252e-03  4.7096e-07  0:00:03   36
  1965  4.8299e-07  2.2988e-06  1.0617e-06  4.1848e-03  4.6919e-07  0:00:02   35
  1966  4.8117e-07  2.2841e-06  1.0579e-06  4.1449e-03  4.6742e-07  0:00:02   34
  1967  4.7935e-07  2.2694e-06  1.0541e-06  4.1052e-03  4.6565e-07  0:00:08   33
  1968  4.7754e-07  2.2547e-06  1.0503e-06  4.0659e-03  4.6388e-07  0:00:06   32
  1969  4.7573e-07  2.2400e-06  1.0465e-06  4.0269e-03  4.6212e-07  0:00:05   31

  iter  continuity  x-velocity  y-velocity  z-velocity      energy     time/iter
  1970  4.7392e-07  2.2254e-06  1.0428e-06  3.9881e-03  4.6036e-07  0:00:04   30
  1971  4.7212e-07  2.2109e-06  1.0390e-06  3.9497e-03  4.5861e-07  0:00:03   29
  1972  4.7032e-07  2.1964e-06  1.0352e-06  3.9115e-03  4.5686e-07  0:00:02   28
  1973  4.6853e-07  2.1819e-06  1.0314e-06  3.8735e-03  4.5511e-07  0:00:02   27
  1974  4.6674e-07  2.1675e-06  1.0277e-06  3.8358e-03  4.5337e-07  0:00:01   26
  1975  4.6496e-07  2.1531e-06  1.0239e-06  3.7983e-03  4.5163e-07  0:00:01   25
  1976  4.6318e-07  2.1388e-06  1.0201e-06  3.7611e-03  4.4990e-07  0:00:01   24
  1977  4.6141e-07  2.1246e-06  1.0164e-06  3.7240e-03  4.4818e-07  0:00:01   23
  1978  4.5964e-07  2.1104e-06  1.0126e-06  3.6871e-03  4.4646e-07  0:00:00   22
  1979  4.5789e-07  2.0962e-06  1.0089e-06  3.6504e-03  4.4475e-07  0:00:00   21
  1980  4.5613e-07  2.0821e-06  1.0051e-06  3.6139e-03  4.4305e-07  0:00:04   20

  iter  continuity  x-velocity  y-velocity  z-velocity      energy     time/iter
  1981  4.5439e-07  2.0681e-06  1.0014e-06  3.5775e-03  4.4135e-07  0:00:03   19
  1982  4.5265e-07  2.0541e-06  9.9764e-07  3.5413e-03  4.3965e-07  0:00:02   18
  1983  4.5092e-07  2.0402e-06  9.9391e-07  3.5052e-03  4.3797e-07  0:00:02   17
  1984  4.4919e-07  2.0264e-06  9.9020e-07  3.4691e-03  4.3629e-07  0:00:01   16
  1985  4.4747e-07  2.0126e-06  9.8649e-07  3.4330e-03  4.3461e-07  0:00:01   15
  1986  4.4575e-07  1.9989e-06  9.8280e-07  3.3971e-03  4.3294e-07  0:00:01   14
  1987  4.4404e-07  1.9852e-06  9.7911e-07  3.3614e-03  4.3128e-07  0:00:01   13
  1988  4.4234e-07  1.9716e-06  9.7543e-07  3.3260e-03  4.2962e-07  0:00:00   12
  1989  4.4064e-07  1.9581e-06  9.7176e-07  3.2908e-03  4.2796e-07  0:00:00   11
  1990  4.3894e-07  1.9447e-06  9.6811e-07  3.2558e-03  4.2631e-07  0:00:00   10
  1991  4.3724e-07  1.9313e-06  9.6446e-07  3.2210e-03  4.2466e-07  0:00:00    9

  iter  continuity  x-velocity  y-velocity  z-velocity      energy     time/iter
  1992  4.3555e-07  1.9180e-06  9.6083e-07  3.1864e-03  4.2302e-07  0:00:00    8
  1993  4.3387e-07  1.9048e-06  9.5720e-07  3.1520e-03  4.2138e-07  0:00:01    7
  1994  4.3218e-07  1.8917e-06  9.5359e-07  3.1178e-03  4.1973e-07  0:00:01    6
  1995  4.3049e-07  1.8786e-06  9.4999e-07  3.0839e-03  4.1809e-07  0:00:01    5
  1996  4.2881e-07  1.8656e-06  9.4640e-07  3.0502e-03  4.1645e-07  0:00:00    4
  1997  4.2712e-07  1.8527e-06  9.4281e-07  3.0167e-03  4.1481e-07  0:00:00    3
  1998  4.2544e-07  1.8399e-06  9.3924e-07  2.9835e-03  4.1317e-07  0:00:00    2
  1999  4.2375e-07  1.8272e-06  9.3568e-07  2.9505e-03  4.1153e-07  0:00:00    1
  2000  4.2206e-07  1.8145e-06  9.3213e-07  2.9177e-03  4.0989e-07  0:00:00    0

> 
adjoint/                parallel/               server/
define/                 parametric-study/       solve/
display/                plot/                   surface/
exit                    preferences/            turbo-workflow/
file/                   print-license-usage     views/
mesh/                   report/

> /file/write-case-data project1
Fast-loading "C:\PROGRA~1\ANSYSI~1\v231\fluent\fluent23.1.0\\addons\afd\lib\hdfio.bin"
Done.

Writing to Engs-30669:"C:\Users\kebl7595\Desktop\CFD\Runs\Actual Data\0 degree larger domain\project1.cas.h5" in NODE0 mode and compression level 1 ...
       15006 cells,     1 zone  ...
       50443 faces,     8 zones ...
       20572 nodes,     1 zone  ...
  Done.
Done.

Writing to Engs-30669:"C:\Users\kebl7595\Desktop\CFD\Runs\Actual Data\0 degree larger domain\project1.dat.h5" in NODE0 mode and compression level 1 ...
  Writing results.
Done.

> /file/export/ascii "./surface.dat" wing te () no pressure mach-number quit no

Writing "./surface.dat"...

Writing information to ascii file ...
Done.


> /plot/plot y "data.dat" no n n pressure-coefficient no n x-coordinate wing ()

> 
adjoint/                parallel/               server/
define/                 parametric-study/       solve/
display/                plot/                   surface/
exit                    preferences/            turbo-workflow/
file/                   print-license-usage     views/
mesh/                   report/

> /exit

Posting ANSYS Product Improvement Program performance data 
Done.
Auto-Transcript Stop Time:  14:29:36, 20 May 2024 GMT Daylight Time 
Total Transcript Time: 2 Minute 59 Second.
