Auto-Transcript Start Time:  13:38:33, 20 May 2024 GMT Daylight Time 
Current Directory: "C:\Users\kebl7595\Desktop\CFD\Runs\Actual Data\0 degree larger domain"

              Welcome to ANSYS Fluent 2023 R1

              Copyright 1987-2023 ANSYS, Inc. All Rights Reserved.
              Unauthorized use, distribution or duplication is prohibited.
              This product is subject to U.S. laws governing export and re-export.
              For full Legal Notice, see documentation.

Build Time: Nov 28 2022 09:52:02 EST  Build Id: 10208  
 
Connected License Server List:	1055@ansyslic.eng.ox.ac.uk

*********************************************
Info: Your license enables 4-way parallel execution.
For faster simulations, please start the application with the appropriate parallel options.
*********************************************


     --------------------------------------------------------------
     This is an academic version of ANSYS FLUENT. Usage of this product
     license is limited to the terms and conditions specified in your ANSYS
     license form, additional terms section.
     --------------------------------------------------------------
Host spawning Node 0 on machine "Engs-30669" (win64).

------------------------------------------------------------------------------------
ID    Hostname    Core  O.S.         PID    Vendor                                 
------------------------------------------------------------------------------------
n0    Engs-30669  1/32  Windows-x64  18548  13th Gen Intel(R) Core(TM) i9-13900    
host  Engs-30669        Windows-x64  44736  13th Gen Intel(R) Core(TM) i9-13900    

MPI Option Selected: intel
------------------------------------------------------------------------------------

Cleanup script file is C:\\Users\\kebl7595\\Desktop\\CFD\\Runs\\Actual Data\\0 degree larger domain\\cleanup-fluent-Engs-30669-44736.bat
QA Service Message :
QA Services Agreement Enabled. This application is included in the scope of an ANSYS QA Services Agreement.
Posting ANSYS Product Improvement Program startup data
Done.

Reading journal file C:/Users/kebl7595/Desktop/CFD/Runs/Actual Data/0 degree larger domain/project1.jou...

> /file/set-batch-options no no no 

> 
define/                 parametric-study/       solve/
display/                plot/                   surface/
exit                    preferences/            switch-to-meshing-mode
file/                   print-license-usage     turbo-workflow/
mesh/                   report/                 views/
parallel/               server/

> /file/import/cgns/mesh  "./project1.cgns"
Engs-30669 has other FLUENT parallel processes running.                       Process affinity not being set.

Importing "./project1.cgns"

Opening library "C:\\PROGRA~1\\ANSYSI~1\\v231\\fluent\\fluent23.1.0\\vki\\win64\\devtools4.4.6.dll"... done.

Read    20572 nodes
   15006 hexahedral cells, zone  1
   10844 quadrilateral wall faces, zone  2.
   39281 quadrilateral interior faces, zone  3.
     312 quadrilateral interface faces, zone  4.
       6 quadrilateral wall faces, zone  5.

Building...
     mesh
     materials,
     interface,
     domains,
     zones,
	default_exterior-1
	interface-default_subface
	default_interior-1
	default_subface
	default
     parallel,
The automatic selection for flux type has changed to Rhie-Chow: momentum based.

Done.


> 
adjoint/                parallel/               server/
define/                 parametric-study/       solve/
display/                plot/                   surface/
exit                    preferences/            turbo-workflow/
file/                   print-license-usage     views/
mesh/                   report/

> /define/models/solver/density-based-implicit yes

> 
adjoint/                parallel/               server/
define/                 parametric-study/       solve/
display/                plot/                   surface/
exit                    preferences/            turbo-workflow/
file/                   print-license-usage     views/
mesh/                   report/

> /define/models/energy? yes yes invalid command [yes]
yes

> /define/models/viscous/inviscid yes

> 
adjoint/                parallel/               server/
define/                 parametric-study/       solve/
display/                plot/                   surface/
exit                    preferences/            turbo-workflow/
file/                   print-license-usage     views/
mesh/                   report/

> /define/materials/change-create air air air is a fluid
yes 
Density
ideal-gas no data required.

no no no no 

> 
adjoint/                parallel/               server/
define/                 parametric-study/       solve/
display/                plot/                   surface/
exit                    preferences/            turbo-workflow/
file/                   print-license-usage     views/
mesh/                   report/

> /mesh/modify-zones/sep-face-zone-angle 2 90 yes

 5002 faces in contiguous region 0
 228 faces in contiguous region 1
 366 faces in contiguous region 2
 5002 faces in contiguous region 3
 246 faces in contiguous region 4
 Separates zone 2 into 5 zone(s).
Updating new zone information...
   created new zone default_subface:010 from default_subface
   created new zone default_subface:009 from default_subface
   created new zone default_subface:008 from default_subface
   created new zone default_subface:007 from default_subface
done.

> 
adjoint/                parallel/               server/
define/                 parametric-study/       solve/
display/                plot/                   surface/
exit                    preferences/            turbo-workflow/
file/                   print-license-usage     views/
mesh/                   report/

> /define/boundary-conditions/zone-name  5   te

> /define/boundary-conditions/zone-name  7 wing

> /define/boundary-conditions/zone-name  2 sym1

> /define/boundary-conditions/zone-name  9 sym2

> 
adjoint/                parallel/               server/
define/                 parametric-study/       solve/
display/                plot/                   surface/
exit                    preferences/            turbo-workflow/
file/                   print-license-usage     views/
mesh/                   report/

> /define/boundary-conditions/zone-name  8 far1

> /define/boundary-conditions/zone-name 10 far2

> 
adjoint/                parallel/               server/
define/                 parametric-study/       solve/
display/                plot/                   surface/
exit                    preferences/            turbo-workflow/
file/                   print-license-usage     views/
mesh/                   report/

> /define/boundary-conditions/zone-type  8 pressure-far-field

> /define/boundary-conditions/zone-type 10 pressure-far-field

> /define/boundary-conditions/zone-type  2 symmetry

> /define/boundary-conditions/zone-type  9 symmetry

> 
adjoint/                parallel/               server/
define/                 parametric-study/       solve/
display/                plot/                   surface/
exit                    preferences/            turbo-workflow/
file/                   print-license-usage     views/
mesh/                   report/

> /define/boundary-conditions/pressure-far-field (far2 far1)
far1 no 0 no 0.1 no 300 yes no 1 no 0 no 0

> /define/boundary-conditions/pressure-far-field (far2 far1)
far2 no 0 no 0.1 no 300 yes no 1 no 0 no 0

> 
adjoint/                parallel/               server/
define/                 parametric-study/       solve/
display/                plot/                   surface/
exit                    preferences/            turbo-workflow/
file/                   print-license-usage     views/
mesh/                   report/

> /solve/initialize/compute-defaults/pressure-far-field (far2 far1)
far1

> /solve/initialize/initialize-flow

> 
adjoint/                parallel/               server/
define/                 parametric-study/       solve/
display/                plot/                   surface/
exit                    preferences/            turbo-workflow/
file/                   print-license-usage     views/
mesh/                   report/

> /solve/monitors/residual/convergence-criteria 1.e-9 1.e-9 1.e-9 1.e-9 1.e-9

> /solve/iterate 2000

  iter  continuity  x-velocity  y-velocity  z-velocity      energy     time/iter
     1  1.0000e+00  1.0000e+00  1.0000e+00  0.0000e+00  1.0000e+00  0:00:00 1999
     2  5.4574e-01  5.9493e-01  3.2623e-01  1.0000e+00  5.4644e-01  0:33:18 1998
     3  2.8926e-01  2.2749e-01  2.5855e-01  8.8884e-01  2.8951e-01  0:26:38 1997
     4  1.8221e-01  1.9575e-01  1.7348e-01  5.8812e-01  1.8228e-01  0:21:17 1996
     5  1.4101e-01  1.4634e-01  1.1346e-01  6.8046e-01  1.4110e-01  0:17:01 1995
     6  1.1793e-01  1.0251e-01  7.8590e-02  8.3478e-01  1.1808e-01  0:13:37 1994
     7  1.0145e-01  7.2135e-02  5.7675e-02  8.9835e-01  1.0162e-01  0:10:53 1993
     8  8.8392e-02  5.3855e-02  4.3869e-02  8.1790e-01  8.8570e-02  0:08:42 1992
     9  7.8235e-02  4.3283e-02  3.4340e-02  7.2173e-01  7.8410e-02  0:06:58 1991
    10  7.0329e-02  3.7633e-02  2.7666e-02  6.5967e-01  7.0498e-02  0:05:34 1990
    11  6.4470e-02  3.5098e-02  2.2843e-02  6.2132e-01  6.4629e-02  0:04:27 1989

  iter  continuity  x-velocity  y-velocity  z-velocity      energy     time/iter
    12  6.0507e-02  3.4328e-02  1.9361e-02  5.9497e-01  6.0659e-02  0:10:11 1988
    13  5.7889e-02  3.4569e-02  1.6898e-02  5.7163e-01  5.8033e-02  0:08:09 1987
    14  5.6566e-02  3.5598e-02  1.5149e-02  5.5551e-01  5.6705e-02  0:06:31 1986
    15  5.6222e-02  3.7124e-02  1.4068e-02  5.4266e-01  5.6355e-02  0:05:12 1985
    16  5.6658e-02  3.8984e-02  1.3515e-02  5.3223e-01  5.6785e-02  0:04:10 1984
    17  5.7680e-02  4.0996e-02  1.3319e-02  5.2325e-01  5.7801e-02  0:03:20 1983
    18  5.9120e-02  4.3006e-02  1.3434e-02  5.1331e-01  5.9234e-02  0:02:40 1982
    19  6.0769e-02  4.4869e-02  1.3857e-02  4.9953e-01  6.0876e-02  0:02:08 1981
    20  6.2429e-02  4.6476e-02  1.4535e-02  4.8325e-01  6.2527e-02  0:01:42 1980
    21  6.3921e-02  4.7704e-02  1.5405e-02  4.6493e-01  6.4009e-02  0:01:22 1979
    22  6.5093e-02  4.8476e-02  1.6394e-02  4.4498e-01  6.5171e-02  0:01:05 1978

  iter  continuity  x-velocity  y-velocity  z-velocity      energy     time/iter
    23  6.5817e-02  4.8736e-02  1.7425e-02  4.2484e-01  6.5885e-02  0:00:52 1977
    24  6.5996e-02  4.8467e-02  1.8429e-02  4.0514e-01  6.6052e-02  0:00:42 1976
    25  6.5553e-02  4.7631e-02  1.9347e-02  3.8597e-01  6.5598e-02  0:00:33 1975
    26  6.4444e-02  4.6239e-02  2.0127e-02  3.6720e-01  6.4478e-02  0:00:27 1974
    27  6.2641e-02  4.4285e-02  2.0725e-02  3.4932e-01  6.2665e-02  0:00:21 1973
    28  6.0146e-02  4.1778e-02  2.1126e-02  3.3174e-01  6.0161e-02  0:00:17 1972
    29  5.6968e-02  3.8763e-02  2.1297e-02  3.1440e-01  5.6975e-02  0:00:14 1971
    30  5.3132e-02  3.5277e-02  2.1237e-02  2.9767e-01  5.3133e-02  0:06:45 1970
    31  4.8688e-02  3.1362e-02  2.0943e-02  2.8046e-01  4.8685e-02  0:05:24 1969
    32  4.3701e-02  2.7111e-02  2.0413e-02  2.6376e-01  4.3695e-02  0:04:19 1968
    33  3.8259e-02  2.2681e-02  1.9654e-02  2.5109e-01  3.8252e-02  0:03:27 1967

  iter  continuity  x-velocity  y-velocity  z-velocity      energy     time/iter
    34  3.2467e-02  1.8315e-02  1.8691e-02  2.3806e-01  3.2459e-02  0:02:46 1966
    35  2.6456e-02  1.4435e-02  1.7550e-02  2.2701e-01  2.6449e-02  0:02:12 1965
    36  2.0417e-02  1.1898e-02  1.6265e-02  2.1857e-01  2.0410e-02  0:01:46 1964
    37  1.4636e-02  1.1713e-02  1.4888e-02  2.1222e-01  1.4625e-02  0:01:25 1963
    38  9.8499e-03  1.3911e-02  1.3466e-02  2.0786e-01  9.8280e-03  0:01:08 1962
    39  8.0411e-03  1.7465e-02  1.2034e-02  2.0639e-01  7.9993e-03  0:00:54 1961
    40  1.0542e-02  2.1515e-02  1.0654e-02  2.0854e-01  1.0494e-02  0:00:43 1960
    41  1.5022e-02  2.5590e-02  9.3921e-03  2.1359e-01  1.4975e-02  0:00:35 1959
    42  1.9877e-02  2.9426e-02  8.3291e-03  2.2221e-01  1.9830e-02  0:00:28 1958
    43  2.4610e-02  3.2912e-02  7.5316e-03  2.3315e-01  2.4563e-02  0:00:22 1957
    44  2.8974e-02  3.5923e-02  7.0829e-03  2.4543e-01  2.8928e-02  0:00:18 1956

  iter  continuity  x-velocity  y-velocity  z-velocity      energy     time/iter
    45  3.2792e-02  3.8390e-02  6.9963e-03  2.5820e-01  3.2748e-02  0:00:14 1955
    46  3.6008e-02  4.0311e-02  7.2033e-03  2.7064e-01  3.5967e-02  0:00:11 1954
    47  3.8605e-02  4.1665e-02  7.6237e-03  2.8136e-01  3.8566e-02  0:06:40 1953
    48  4.0582e-02  4.2478e-02  8.1533e-03  2.8724e-01  4.0547e-02  0:05:20 1952
    49  4.1951e-02  4.2742e-02  8.7181e-03  2.9090e-01  4.1920e-02  0:04:16 1951
    50  4.2731e-02  4.2457e-02  9.2517e-03  2.9124e-01  4.2705e-02  0:03:24 1950
    51  4.2950e-02  4.1704e-02  9.6889e-03  2.8591e-01  4.2928e-02  0:02:43 1949
    52  4.2640e-02  4.0519e-02  1.0023e-02  2.7166e-01  4.2622e-02  0:02:11 1948
    53  4.1838e-02  3.8960e-02  1.0254e-02  2.6591e-01  4.1825e-02  0:01:44 1947
    54  4.0587e-02  3.7067e-02  1.0380e-02  2.5199e-01  4.0577e-02  0:01:24 1946
    55  3.8930e-02  3.4894e-02  1.0400e-02  2.3581e-01  3.8923e-02  0:01:07 1945

  iter  continuity  x-velocity  y-velocity  z-velocity      energy     time/iter
    56  3.6916e-02  3.2501e-02  1.0315e-02  2.2064e-01  3.6912e-02  0:00:53 1944
    57  3.4597e-02  2.9941e-02  1.0130e-02  2.0608e-01  3.4596e-02  0:00:43 1943
    58  3.2024e-02  2.7230e-02  9.8578e-03  1.9384e-01  3.2024e-02  0:00:34 1942
    59  2.9245e-02  2.4450e-02  9.5081e-03  1.8744e-01  2.9247e-02  0:00:27 1941
    60  2.6304e-02  2.1619e-02  9.0942e-03  1.8796e-01  2.6306e-02  0:00:22 1940
    61  2.3252e-02  1.8844e-02  8.6166e-03  1.9671e-01  2.3255e-02  0:00:17 1939
    62  2.0136e-02  1.6218e-02  8.0803e-03  2.1373e-01  2.0138e-02  0:00:14 1938
    63  1.6995e-02  1.3784e-02  7.5120e-03  2.3784e-01  1.6997e-02  0:00:11 1937
    64  1.3884e-02  1.1649e-02  6.9201e-03  2.6750e-01  1.3884e-02  0:06:36 1936
    65  1.0864e-02  9.9592e-03  6.3139e-03  2.9883e-01  1.0863e-02  0:05:17 1935
    66  8.0347e-03  8.8757e-03  5.7041e-03  3.2889e-01  8.0322e-03  0:04:13 1934

  iter  continuity  x-velocity  y-velocity  z-velocity      energy     time/iter
    67  5.5677e-03  8.4987e-03  5.1071e-03  3.5671e-01  5.5631e-03  0:03:22 1933
    68  4.0215e-03  8.7902e-03  4.5355e-03  3.8079e-01  4.0152e-03  0:02:42 1932
    69  4.2688e-03  9.5898e-03  4.0096e-03  4.0017e-01  4.2642e-03  0:02:09 1931
    70  5.8970e-03  1.0686e-02  3.5561e-03  4.1381e-01  5.8955e-03  0:01:44 1930
    71  7.9341e-03  1.1905e-02  3.2068e-03  4.2115e-01  7.9346e-03  0:01:23 1929
    72  9.9911e-03  1.3140e-02  2.9952e-03  4.2168e-01  9.9929e-03  0:01:06 1928
    73  1.1932e-02  1.4321e-02  2.9351e-03  3.9860e-01  1.1935e-02  0:00:53 1927
    74  1.3715e-02  1.5403e-02  3.0242e-03  3.9110e-01  1.3718e-02  0:00:42 1926
    75  1.5316e-02  1.6356e-02  3.2327e-03  3.7878e-01  1.5320e-02  0:00:34 1925
    76  1.6725e-02  1.7183e-02  3.5201e-03  3.5571e-01  1.6728e-02  0:00:27 1924
    77  1.7933e-02  1.7862e-02  3.8529e-03  3.2767e-01  1.7936e-02  0:00:22 1923

  iter  continuity  x-velocity  y-velocity  z-velocity      energy     time/iter
    78  1.8935e-02  1.8385e-02  4.2048e-03  2.9885e-01  1.8938e-02  0:00:17 1922
    79  1.9725e-02  1.8747e-02  4.5557e-03  2.6803e-01  1.9727e-02  0:00:14 1921
    80  2.0303e-02  1.8948e-02  4.8890e-03  2.4178e-01  2.0305e-02  0:00:11 1920
    81  2.0673e-02  1.8986e-02  5.1924e-03  2.2618e-01  2.0674e-02  0:00:09 1919
    82  2.0839e-02  1.8868e-02  5.4579e-03  2.2741e-01  2.0839e-02  0:06:31 1918
    83  2.0808e-02  1.8592e-02  5.6821e-03  2.4686e-01  2.0807e-02  0:05:12 1917
    84  2.0587e-02  1.8168e-02  5.8569e-03  2.8559e-01  2.0586e-02  0:04:10 1916
    85  2.0185e-02  1.7608e-02  5.9820e-03  3.3243e-01  2.0183e-02  0:03:20 1915
    86  1.9609e-02  1.6922e-02  6.0555e-03  3.8098e-01  1.9607e-02  0:02:40 1914
    87  1.8867e-02  1.6118e-02  6.0783e-03  4.2827e-01  1.8865e-02  0:02:08 1913
    88  1.7967e-02  1.5211e-02  6.0503e-03  4.7298e-01  1.7964e-02  0:01:42 1912

  iter  continuity  x-velocity  y-velocity  z-velocity      energy     time/iter
    89  1.6916e-02  1.4209e-02  5.9757e-03  5.1300e-01  1.6912e-02  0:01:22 1911
    90  1.5725e-02  1.3144e-02  5.8531e-03  5.4760e-01  1.5722e-02  0:01:05 1910
    91  1.4409e-02  1.2040e-02  5.6842e-03  5.7570e-01  1.4406e-02  0:00:52 1909
    92  1.2981e-02  1.0926e-02  5.4725e-03  5.9627e-01  1.2978e-02  0:00:42 1908
    93  1.1460e-02  9.8519e-03  5.2193e-03  6.0861e-01  1.1457e-02  0:00:33 1907
    94  9.8659e-03  8.8776e-03  4.9297e-03  5.9577e-01  9.8633e-03  0:00:27 1906
    95  8.2239e-03  8.0700e-03  4.6090e-03  6.0042e-01  8.2217e-03  0:00:21 1905
    96  6.5687e-03  7.5089e-03  4.2636e-03  5.8151e-01  6.5668e-03  0:00:17 1904
    97  4.9571e-03  7.2593e-03  3.9009e-03  5.5782e-01  4.9552e-03  0:00:14 1903
    98  3.5155e-03  7.3463e-03  3.5295e-03  5.2611e-01  3.5129e-03  0:00:11 1902
    99  2.5950e-03  7.7393e-03  3.1595e-03  4.8834e-01  2.5907e-03  0:06:29 1901

  iter  continuity  x-velocity  y-velocity  z-velocity      energy     time/iter
   100  2.7484e-03  8.3595e-03  2.8043e-03  4.4644e-01  2.7427e-03  0:05:11 1900
   101  3.7923e-03  9.1162e-03  2.4819e-03  3.9719e-01  3.7865e-03  0:04:09 1899
   102  5.1487e-03  9.9325e-03  2.2134e-03  3.4511e-01  5.1428e-03  0:03:19 1898
   103  6.5523e-03  1.0750e-02  2.0214e-03  2.9338e-01  6.5463e-03  0:02:39 1897
   104  7.9158e-03  1.1519e-02  1.9259e-03  2.4513e-01  7.9098e-03  0:02:07 1896
   105  9.1918e-03  1.2205e-02  1.9334e-03  2.0749e-01  9.1857e-03  0:01:42 1895
   106  1.0349e-02  1.2784e-02  2.0317e-03  1.8979e-01  1.0343e-02  0:01:21 1894
   107  1.1364e-02  1.3240e-02  2.1933e-03  1.9806e-01  1.1359e-02  0:01:05 1893
   108  1.2222e-02  1.3559e-02  2.3932e-03  2.2880e-01  1.2216e-02  0:00:52 1892
   109  1.2908e-02  1.3736e-02  2.6082e-03  2.7261e-01  1.2903e-02  0:00:42 1891
   110  1.3415e-02  1.3769e-02  2.8187e-03  3.2199e-01  1.3411e-02  0:00:33 1890

  iter  continuity  x-velocity  y-velocity  z-velocity      energy     time/iter
   111  1.3739e-02  1.3660e-02  3.0091e-03  3.7233e-01  1.3735e-02  0:00:27 1889
   112  1.3879e-02  1.3417e-02  3.1784e-03  4.1902e-01  1.3875e-02  0:00:21 1888
   113  1.3837e-02  1.3049e-02  3.3190e-03  4.6076e-01  1.3833e-02  0:00:17 1887
   114  1.3618e-02  1.2567e-02  3.4264e-03  4.9562e-01  1.3615e-02  0:00:14 1886
   115  1.3231e-02  1.1985e-02  3.4990e-03  5.2461e-01  1.3228e-02  0:00:11 1885
   116  1.2687e-02  1.1319e-02  3.5345e-03  5.4768e-01  1.2685e-02  0:00:09 1884
   117  1.2000e-02  1.0587e-02  3.5338e-03  5.6425e-01  1.1998e-02  0:06:24 1883
   118  1.1186e-02  9.8091e-03  3.4979e-03  5.7368e-01  1.1185e-02  0:05:07 1882
   119  1.0264e-02  9.0083e-03  3.4276e-03  5.5484e-01  1.0263e-02  0:04:05 1881
   120  9.2523e-03  8.2092e-03  3.3246e-03  5.6381e-01  9.2515e-03  0:03:16 1880
   121  8.1722e-03  7.4381e-03  3.1914e-03  5.5335e-01  8.1715e-03  0:02:37 1879

  iter  continuity  x-velocity  y-velocity  z-velocity      energy     time/iter
   122  7.0461e-03  6.7257e-03  3.0313e-03  5.4131e-01  7.0455e-03  0:02:05 1878
   123  5.8977e-03  6.1013e-03  2.8483e-03  5.2062e-01  5.8970e-03  0:01:40 1877
   124  4.7537e-03  5.5968e-03  2.6465e-03  4.9427e-01  4.7529e-03  0:01:20 1876
   125  3.6493e-03  5.2296e-03  2.4302e-03  4.6445e-01  3.6480e-03  0:01:04 1875
   126  2.6478e-03  5.0279e-03  2.2045e-03  4.3288e-01  2.6459e-03  0:00:51 1874
   127  1.8877e-03  4.9849e-03  1.9759e-03  3.9673e-01  1.8847e-03  0:00:41 1873
   128  1.6672e-03  5.0770e-03  1.7512e-03  3.5846e-01  1.6636e-03  0:00:33 1872
   129  2.0737e-03  5.2695e-03  1.5393e-03  3.1883e-01  2.0706e-03  0:00:26 1871
   130  2.7739e-03  5.5204e-03  1.3513e-03  2.7792e-01  2.7714e-03  0:00:21 1870
   131  3.5347e-03  5.7968e-03  1.2008e-03  2.3649e-01  3.5327e-03  0:00:17 1869
   132  4.2687e-03  6.0747e-03  1.1015e-03  1.9631e-01  4.2670e-03  0:00:13 1868

  iter  continuity  x-velocity  y-velocity  z-velocity      energy     time/iter
   133  4.9406e-03  6.3345e-03  1.0631e-03  1.5820e-01  4.9391e-03  0:00:11 1867
   134  5.5337e-03  6.5623e-03  1.0846e-03  1.2583e-01  5.5323e-03  0:06:22 1866
   135  6.0392e-03  6.7501e-03  1.1548e-03  1.0484e-01  6.0379e-03  0:05:05 1865
   136  6.4524e-03  6.8919e-03  1.2550e-03  1.0175e-01  6.4511e-03  0:04:04 1864
   137  6.7716e-03  6.9848e-03  1.3693e-03  1.1577e-01  6.7704e-03  0:03:15 1863
   138  6.9973e-03  7.0278e-03  1.4867e-03  1.4021e-01  6.9960e-03  0:02:36 1862
   139  7.1307e-03  7.0220e-03  1.5985e-03  1.6924e-01  7.1295e-03  0:02:05 1861
   140  7.1761e-03  6.9703e-03  1.6986e-03  1.9939e-01  7.1749e-03  0:01:40 1860
   141  7.1382e-03  6.8767e-03  1.7836e-03  2.2902e-01  7.1370e-03  0:01:20 1859
   142  7.0221e-03  6.7445e-03  1.8511e-03  2.5678e-01  7.0210e-03  0:01:04 1858
   143  6.8337e-03  6.5789e-03  1.8998e-03  2.8058e-01  6.8326e-03  0:00:51 1857

  iter  continuity  x-velocity  y-velocity  z-velocity      energy     time/iter
   144  6.5793e-03  6.3863e-03  1.9292e-03  3.0236e-01  6.5783e-03  0:00:41 1856
   145  6.2652e-03  6.1738e-03  1.9392e-03  3.2161e-01  6.2642e-03  0:00:33 1855
   146  5.8984e-03  5.9460e-03  1.9295e-03  3.3593e-01  5.8975e-03  0:00:26 1854
   147  5.4871e-03  5.7145e-03  1.9009e-03  3.3155e-01  5.4863e-03  0:00:21 1853
   148  5.0387e-03  5.4862e-03  1.8547e-03  3.3645e-01  5.0381e-03  0:00:17 1852
   149  4.5609e-03  5.2687e-03  1.7923e-03  3.4889e-01  4.5603e-03  0:00:13 1851
   150  4.0604e-03  5.0643e-03  1.7154e-03  3.5329e-01  4.0600e-03  0:00:11 1850
   151  3.5454e-03  4.8869e-03  1.6259e-03  3.5670e-01  3.5451e-03  0:00:09 1849
   152  3.0240e-03  4.7471e-03  1.5256e-03  3.5775e-01  3.0238e-03  0:06:16 1848
   153  2.5046e-03  4.6480e-03  1.4166e-03  3.5668e-01  2.5045e-03  0:05:01 1847
   154  1.9979e-03  4.5910e-03  1.3012e-03  3.5155e-01  1.9980e-03  0:04:01 1846

  iter  continuity  x-velocity  y-velocity  z-velocity      energy     time/iter
   155  1.5209e-03  4.5781e-03  1.1819e-03  3.4199e-01  1.5212e-03  0:03:12 1845
   156  1.1066e-03  4.6033e-03  1.0611e-03  3.2960e-01  1.1069e-03  0:02:34 1844
   157  8.3250e-04  4.6616e-03  9.4227e-04  3.1370e-01  8.3262e-04  0:02:03 1843
   158  8.1823e-04  4.7466e-03  8.2882e-04  2.9578e-01  8.1799e-04  0:01:38 1842
   159  1.0439e-03  4.8505e-03  7.2550e-04  2.7652e-01  1.0433e-03  0:01:19 1841
   160  1.3711e-03  4.9647e-03  6.3789e-04  2.5690e-01  1.3704e-03  0:01:03 1840
   161  1.7208e-03  5.0843e-03  5.7242e-04  2.3722e-01  1.7199e-03  0:00:50 1839
   162  2.0615e-03  5.2013e-03  5.3519e-04  2.1656e-01  2.0606e-03  0:00:40 1838
   163  2.3799e-03  5.3100e-03  5.2924e-04  1.9473e-01  2.3789e-03  0:00:32 1837
   164  2.6694e-03  5.4070e-03  5.5069e-04  1.7120e-01  2.6684e-03  0:00:26 1836
   165  2.9262e-03  5.4869e-03  5.9218e-04  1.4712e-01  2.9251e-03  0:00:21 1835

  iter  continuity  x-velocity  y-velocity  z-velocity      energy     time/iter
   166  3.1477e-03  5.5470e-03  6.4577e-04  1.2326e-01  3.1466e-03  0:00:16 1834
   167  3.3318e-03  5.5852e-03  7.0442e-04  9.9755e-02  3.3307e-03  0:00:13 1833
   168  3.4794e-03  5.5999e-03  7.6309e-04  8.1036e-02  3.4782e-03  0:06:17 1832
   169  3.5901e-03  5.5914e-03  8.1788e-04  7.0406e-02  3.5890e-03  0:05:01 1831
   170  3.6639e-03  5.5592e-03  8.6792e-04  6.9718e-02  3.6629e-03  0:04:01 1830
   171  3.7015e-03  5.5039e-03  9.1125e-04  7.8415e-02  3.7004e-03  0:03:13 1829
   172  3.7036e-03  5.4275e-03  9.4690e-04  9.3245e-02  3.7026e-03  0:02:34 1828
   173  3.6713e-03  5.3307e-03  9.7430e-04  1.1018e-01  3.6703e-03  0:02:03 1827
   174  3.6062e-03  5.2150e-03  9.9325e-04  1.2716e-01  3.6052e-03  0:01:38 1826
   175  3.5096e-03  5.0817e-03  1.0035e-03  1.4434e-01  3.5087e-03  0:01:19 1825
   176  3.3837e-03  4.9378e-03  1.0051e-03  1.6005e-01  3.3828e-03  0:01:03 1824

  iter  continuity  x-velocity  y-velocity  z-velocity      energy     time/iter
   177  3.2304e-03  4.7857e-03  9.9833e-04  1.6845e-01  3.2296e-03  0:00:50 1823
   178  3.0517e-03  4.6290e-03  9.8361e-04  1.7780e-01  3.0509e-03  0:06:45 1822
   179  2.8499e-03  4.4701e-03  9.6129e-04  1.8690e-01  2.8491e-03  0:05:24 1821
   180  2.6267e-03  4.3135e-03  9.3181e-04  2.0063e-01  2.6259e-03  0:04:19 1820
   181  2.3849e-03  4.1590e-03  8.9560e-04  2.1056e-01  2.3841e-03  0:03:27 1819
   182  2.1272e-03  4.0061e-03  8.5357e-04  2.1718e-01  2.1264e-03  0:02:45 1818
   183  1.8588e-03  3.8749e-03  8.0594e-04  2.2117e-01  1.8581e-03  0:02:12 1817
   184  1.5828e-03  3.7651e-03  7.5426e-04  2.2288e-01  1.5820e-03  0:01:46 1816
   185  1.3040e-03  3.6792e-03  6.9951e-04  2.2237e-01  1.3032e-03  0:01:25 1815
   186  1.0300e-03  3.6200e-03  6.4284e-04  2.2021e-01  1.0291e-03  0:01:08 1814
   187  7.7623e-04  3.5898e-03  5.8557e-04  2.1578e-01  7.7516e-04  0:00:54 1813

  iter  continuity  x-velocity  y-velocity  z-velocity      energy     time/iter
   188  5.7592e-04  3.5841e-03  5.2890e-04  2.0949e-01  5.7464e-04  0:00:43 1812
   189  4.9997e-04  3.6005e-03  4.7610e-04  2.0128e-01  4.9866e-04  0:06:37 1811
   190  5.9390e-04  3.6361e-03  4.2924e-04  1.9145e-01  5.9290e-04  0:05:17 1810
   191  7.9162e-04  3.6875e-03  3.9166e-04  1.8008e-01  7.9093e-04  0:04:14 1809
   192  1.0254e-03  3.7491e-03  3.6716e-04  1.6738e-01  1.0249e-03  0:03:23 1808
   193  1.2665e-03  3.8192e-03  3.5818e-04  1.5384e-01  1.2661e-03  0:02:42 1807
   194  1.5018e-03  3.8937e-03  3.6529e-04  1.3940e-01  1.5015e-03  0:02:10 1806
   195  1.7239e-03  3.9641e-03  3.8615e-04  1.2427e-01  1.7236e-03  0:01:44 1805
   196  1.9288e-03  4.0314e-03  4.1760e-04  1.0883e-01  1.9285e-03  0:01:23 1804
   197  2.1129e-03  4.0918e-03  4.5597e-04  9.3459e-02  2.1126e-03  0:01:06 1803
   198  2.2735e-03  4.1420e-03  4.9767e-04  7.8691e-02  2.2733e-03  0:00:53 1802

  iter  continuity  x-velocity  y-velocity  z-velocity      energy     time/iter
   199  2.4086e-03  4.1796e-03  5.3963e-04  6.4795e-02  2.4083e-03  0:06:43 1801
   200  2.5165e-03  4.2041e-03  5.7997e-04  5.2881e-02  2.5162e-03  0:05:22 1800
   201  2.5959e-03  4.2149e-03  6.1724e-04  4.5463e-02  2.5956e-03  0:04:17 1799
   202  2.6459e-03  4.2118e-03  6.5033e-04  4.4128e-02  2.6456e-03  0:03:26 1798
   203  2.6660e-03  4.1947e-03  6.7840e-04  4.8365e-02  2.6657e-03  0:02:45 1797
   204  2.6562e-03  4.1654e-03  7.0053e-04  5.6433e-02  2.6559e-03  0:02:12 1796
   205  2.6168e-03  4.1244e-03  7.1646e-04  6.6481e-02  2.6165e-03  0:01:45 1795
   206  2.5483e-03  4.0734e-03  7.2612e-04  7.6610e-02  2.5481e-03  0:01:24 1794
   207  2.4520e-03  4.0154e-03  7.2919e-04  8.4503e-02  2.4518e-03  0:01:07 1793
   208  2.3292e-03  3.9531e-03  7.2526e-04  9.2087e-02  2.3290e-03  0:00:54 1792
   209  2.1818e-03  3.8883e-03  7.1475e-04  9.8553e-02  2.1816e-03  0:00:43 1791

  iter  continuity  x-velocity  y-velocity  z-velocity      energy     time/iter
   210  2.0120e-03  3.8263e-03  6.9772e-04  1.0405e-01  2.0118e-03  0:06:32 1790
   211  1.8226e-03  3.7711e-03  6.7488e-04  1.1107e-01  1.8225e-03  0:05:14 1789
   212  1.6168e-03  3.7246e-03  6.4681e-04  1.1759e-01  1.6167e-03  0:04:11 1788
   213  1.3981e-03  3.6896e-03  6.1388e-04  1.2276e-01  1.3981e-03  0:03:21 1787
   214  1.1711e-03  3.6675e-03  5.7701e-04  1.2658e-01  1.1711e-03  0:02:40 1786
   215  9.4237e-04  3.6601e-03  5.3718e-04  1.2881e-01  9.4235e-04  0:02:08 1785
   216  7.2013e-04  3.6637e-03  4.9590e-04  1.2947e-01  7.2011e-04  0:01:43 1784
   217  5.1771e-04  3.6656e-03  4.5438e-04  1.2871e-01  5.1769e-04  0:01:22 1783
   218  4.0081e-04  3.6903e-03  4.1277e-04  1.2662e-01  4.0067e-04  0:01:06 1782
   219  4.3097e-04  3.7266e-03  3.7604e-04  1.2315e-01  4.3069e-04  0:00:52 1781
   220  5.7779e-04  3.7707e-03  3.4567e-04  1.1840e-01  5.7743e-04  0:06:38 1780

  iter  continuity  x-velocity  y-velocity  z-velocity      energy     time/iter
   221  7.6716e-04  3.8190e-03  3.2414e-04  1.1247e-01  7.6675e-04  0:05:18 1779
   222  9.6715e-04  3.8691e-03  3.1284e-04  1.0576e-01  9.6668e-04  0:04:14 1778
   223  1.1611e-03  3.9147e-03  3.1480e-04  9.8381e-02  1.1606e-03  0:03:23 1777
   224  1.3431e-03  3.9543e-03  3.2588e-04  9.0374e-02  1.3426e-03  0:02:43 1776
   225  1.5085e-03  3.9843e-03  3.4493e-04  8.1977e-02  1.5079e-03  0:02:10 1775
   226  1.6545e-03  4.0038e-03  3.7002e-04  7.3563e-02  1.6540e-03  0:01:44 1774
   227  1.7794e-03  4.0120e-03  3.9702e-04  6.5165e-02  1.7788e-03  0:01:23 1773
   228  1.8818e-03  4.0092e-03  4.2587e-04  5.6910e-02  1.8812e-03  0:01:06 1772
   229  1.9607e-03  3.9945e-03  4.5430e-04  4.9297e-02  1.9601e-03  0:00:53 1771
   230  2.0155e-03  3.9677e-03  4.8059e-04  4.2653e-02  2.0149e-03  0:06:36 1770
   231  2.0462e-03  3.9292e-03  5.0371e-04  3.7694e-02  2.0455e-03  0:05:17 1769

  iter  continuity  x-velocity  y-velocity  z-velocity      energy     time/iter
   232  2.0529e-03  3.8787e-03  5.2258e-04  3.5177e-02  2.0522e-03  0:04:13 1768
   233  2.0363e-03  3.8184e-03  5.3685e-04  3.5363e-02  2.0357e-03  0:03:23 1767
   234  1.9973e-03  3.7506e-03  5.4651e-04  3.7964e-02  1.9967e-03  0:02:42 1766
   235  1.9371e-03  3.6771e-03  5.5104e-04  4.2827e-02  1.9365e-03  0:02:10 1765
   236  1.8570e-03  3.5992e-03  5.5057e-04  4.7696e-02  1.8564e-03  0:01:44 1764
   237  1.7586e-03  3.5184e-03  5.4581e-04  5.2380e-02  1.7579e-03  0:01:23 1763
   238  1.6438e-03  3.4376e-03  5.3585e-04  5.6743e-02  1.6431e-03  0:01:06 1762
   239  1.5145e-03  3.3595e-03  5.2139e-04  6.0585e-02  1.5138e-03  0:06:45 1761
   240  1.3731e-03  3.2886e-03  5.0396e-04  6.3460e-02  1.3724e-03  0:05:24 1760
   241  1.2218e-03  3.2232e-03  4.8107e-04  6.4991e-02  1.2212e-03  0:04:19 1759
   242  1.0629e-03  3.1623e-03  4.5484e-04  6.5487e-02  1.0622e-03  0:03:27 1758

  iter  continuity  x-velocity  y-velocity  z-velocity      energy     time/iter
   243  8.9907e-04  3.1087e-03  4.2603e-04  6.5527e-02  8.9831e-04  0:02:46 1757
   244  7.3433e-04  3.0653e-03  3.9562e-04  6.5380e-02  7.3346e-04  0:02:12 1756
   245  5.7386e-04  3.0334e-03  3.6421e-04  6.4723e-02  5.7281e-04  0:01:46 1755
   246  4.2747e-04  3.0137e-03  3.3236e-04  6.4256e-02  4.2613e-04  0:01:25 1754
   247  3.1716e-04  3.0053e-03  3.0215e-04  6.4066e-02  3.1546e-04  0:01:08 1753
   248  2.8620e-04  3.0080e-03  2.7437e-04  6.3873e-02  2.8443e-04  0:00:54 1752
   249  3.4837e-04  3.0172e-03  2.5039e-04  6.3282e-02  3.4702e-04  0:06:33 1751
   250  4.6119e-04  3.0312e-03  2.3221e-04  6.2730e-02  4.6025e-04  0:05:15 1750
   251  5.9086e-04  3.0535e-03  2.2161e-04  6.1474e-02  5.9020e-04  0:04:12 1749
   252  7.2183e-04  3.0807e-03  2.1939e-04  5.9383e-02  7.2133e-04  0:03:21 1748
   253  8.4728e-04  3.1114e-03  2.2491e-04  5.6522e-02  8.4689e-04  0:02:41 1747

  iter  continuity  x-velocity  y-velocity  z-velocity      energy     time/iter
   254  9.6377e-04  3.1432e-03  2.3789e-04  5.3131e-02  9.6346e-04  0:02:09 1746
   255  1.0690e-03  3.1721e-03  2.5530e-04  4.9417e-02  1.0687e-03  0:01:43 1745
   256  1.1591e-03  3.1816e-03  2.7365e-04  4.5503e-02  1.1589e-03  0:01:22 1744
   257  1.2393e-03  3.1988e-03  2.9440e-04  4.1738e-02  1.2391e-03  0:01:06 1743
   258  1.3060e-03  3.2188e-03  3.1478e-04  3.8759e-02  1.3059e-03  0:00:53 1742
   259  1.3574e-03  3.2360e-03  3.3447e-04  3.5696e-02  1.3572e-03  0:06:30 1741
   260  1.3942e-03  3.2547e-03  3.5327e-04  3.4178e-02  1.3941e-03  0:05:12 1740
   261  1.4158e-03  3.2673e-03  3.6901e-04  3.3741e-02  1.4157e-03  0:04:09 1739
   262  1.4219e-03  3.2711e-03  3.8225e-04  3.3989e-02  1.4218e-03  0:03:19 1738
   263  1.4131e-03  3.2675e-03  3.9162e-04  3.4864e-02  1.4130e-03  0:02:39 1737
   264  1.3900e-03  3.2591e-03  3.9829e-04  3.6775e-02  1.3900e-03  0:02:07 1736

  iter  continuity  x-velocity  y-velocity  z-velocity      energy     time/iter
   265  1.3532e-03  3.2473e-03  4.0163e-04  3.9579e-02  1.3532e-03  0:01:42 1735
   266  1.3034e-03  3.2326e-03  4.0220e-04  4.2404e-02  1.3034e-03  0:01:22 1734
   267  1.2414e-03  3.2164e-03  3.9951e-04  4.4473e-02  1.2415e-03  0:01:05 1733
   268  1.1684e-03  3.1995e-03  3.9358e-04  4.6692e-02  1.1685e-03  0:00:52 1732
   269  1.0853e-03  3.1825e-03  3.8455e-04  4.9784e-02  1.0855e-03  0:00:42 1731
   270  9.9358e-04  3.1663e-03  3.7270e-04  5.3651e-02  9.9378e-04  0:06:19 1730
   271  8.9444e-04  3.1502e-03  3.5836e-04  5.7047e-02  8.9470e-04  0:05:03 1729
   272  7.8962e-04  3.1360e-03  3.4199e-04  5.9531e-02  7.8996e-04  0:04:02 1728
   273  6.8084e-04  3.1263e-03  3.2359e-04  6.0505e-02  6.8127e-04  0:03:14 1727
   274  5.6998e-04  3.1204e-03  3.0358e-04  6.0178e-02  5.7053e-04  0:02:35 1726
   275  4.5954e-04  3.1170e-03  2.8295e-04  6.0009e-02  4.6024e-04  0:02:04 1725

  iter  continuity  x-velocity  y-velocity  z-velocity      energy     time/iter
   276  3.5452e-04  3.1182e-03  2.6265e-04  6.0729e-02  3.5543e-04  0:01:39 1724
   277  2.6408e-04  3.1230e-03  2.4335e-04  6.1681e-02  2.6529e-04  0:01:19 1723
   278  2.0728e-04  3.1299e-03  2.2499e-04  6.4239e-02  2.0877e-04  0:01:03 1722
   279  2.1019e-04  3.1383e-03  2.0866e-04  6.4606e-02  2.1155e-04  0:00:51 1721
   280  2.6670e-04  3.1466e-03  1.9549e-04  6.3318e-02  2.6765e-04  0:06:24 1720
   281  3.4713e-04  3.1557e-03  1.8646e-04  7.4002e-02  3.4774e-04  0:05:07 1719
   282  4.3390e-04  3.1650e-03  1.8212e-04  8.3055e-02  4.3428e-04  0:04:06 1718
   283  5.1945e-04  3.1735e-03  1.8105e-04  7.5351e-02  5.1966e-04  0:03:17 1717
   284  6.0067e-04  3.1808e-03  1.8579e-04  6.0058e-02  6.0076e-04  0:02:37 1716
   285  6.7521e-04  3.1862e-03  1.9556e-04  4.6211e-02  6.7522e-04  0:02:06 1715
   286  7.4143e-04  3.1887e-03  2.0530e-04  3.9011e-02  7.4137e-04  0:01:40 1714

  iter  continuity  x-velocity  y-velocity  z-velocity      energy     time/iter
   287  7.9938e-04  3.1885e-03  2.1738e-04  3.9601e-02  7.9925e-04  0:01:20 1713
   288  8.4794e-04  3.1831e-03  2.2966e-04  5.0504e-02  8.4775e-04  0:01:04 1712
   289  8.8681e-04  3.1710e-03  2.4170e-04  7.3679e-02  8.8660e-04  0:00:51 1711
   290  9.1607e-04  3.1602e-03  2.5317e-04  9.5387e-02  9.1584e-04  0:06:23 1710
   291  9.3541e-04  3.1463e-03  2.6375e-04  1.1438e-01  9.3516e-04  0:05:06 1709
   292  9.4493e-04  3.1282e-03  2.7214e-04  1.3155e-01  9.4468e-04  0:04:05 1708
   293  9.4490e-04  3.1064e-03  2.7863e-04  1.4684e-01  9.4464e-04  0:03:16 1707
   294  9.3559e-04  3.0813e-03  2.8340e-04  1.5609e-01  9.3531e-04  0:02:37 1706
   295  9.1735e-04  3.0533e-03  2.8672e-04  1.4678e-01  9.1707e-04  0:02:05 1705
   296  8.9060e-04  3.0240e-03  2.8751e-04  1.2188e-01  8.9030e-04  0:01:40 1704
   297  8.5621e-04  2.9940e-03  2.8553e-04  9.7174e-02  8.5589e-04  0:01:20 1703

  iter  continuity  x-velocity  y-velocity  z-velocity      energy     time/iter
   298  8.1481e-04  2.9635e-03  2.8189e-04  8.2772e-02  8.1447e-04  0:01:04 1702
   299  7.6712e-04  2.9339e-03  2.7647e-04  7.2007e-02  7.6675e-04  0:00:51 1701
   300  7.1384e-04  2.9059e-03  2.6976e-04  7.7416e-02  7.1346e-04  0:00:41 1700
   301  6.5493e-04  2.8803e-03  2.6142e-04  8.5475e-02  6.5451e-04  0:06:12 1699
   302  5.9321e-04  2.8584e-03  2.5019e-04  9.0706e-02  5.9273e-04  0:04:58 1698
   303  5.2924e-04  2.8386e-03  2.3921e-04  9.1796e-02  5.2871e-04  0:03:58 1697
   304  4.6256e-04  2.8206e-03  2.2793e-04  8.9735e-02  4.6202e-04  0:03:10 1696
   305  3.9417e-04  2.8053e-03  2.1600e-04  8.4689e-02  3.9361e-04  0:02:32 1695
   306  3.2564e-04  2.7927e-03  2.0329e-04  7.8160e-02  3.2506e-04  0:02:02 1694
   307  2.5899e-04  2.7832e-03  1.9031e-04  7.1415e-02  2.5839e-04  0:01:37 1693
   308  1.9733e-04  2.7769e-03  1.7785e-04  6.5171e-02  1.9671e-04  0:01:18 1692

  iter  continuity  x-velocity  y-velocity  z-velocity      energy     time/iter
   309  1.4654e-04  2.7730e-03  1.6714e-04  5.9986e-02  1.4593e-04  0:01:02 1691
   310  1.2041e-04  2.7720e-03  1.5668e-04  5.5757e-02  1.1991e-04  0:00:50 1690
   311  1.3185e-04  2.7733e-03  1.4872e-04  5.2152e-02  1.3161e-04  0:06:18 1689
   312  1.7040e-04  2.7754e-03  1.4245e-04  4.8926e-02  1.7037e-04  0:05:02 1688
   313  2.1922e-04  2.7786e-03  1.3820e-04  4.5929e-02  2.1931e-04  0:04:01 1687
   314  2.6872e-04  2.7886e-03  1.3510e-04  4.2666e-02  2.6891e-04  0:03:13 1686
   315  3.1742e-04  2.7990e-03  1.3680e-04  4.0158e-02  3.1770e-04  0:02:34 1685
   316  3.6310e-04  2.8082e-03  1.3997e-04  3.7166e-02  3.6343e-04  0:02:03 1684
   317  4.0453e-04  2.8139e-03  1.4353e-04  3.6221e-02  4.0487e-04  0:01:39 1683
   318  4.4157e-04  2.8186e-03  1.4918e-04  3.6533e-02  4.4192e-04  0:01:19 1682
   319  4.7366e-04  2.8227e-03  1.5587e-04  3.7079e-02  4.7402e-04  0:01:03 1681

  iter  continuity  x-velocity  y-velocity  z-velocity      energy     time/iter
   320  5.0052e-04  2.8268e-03  1.6236e-04  3.6977e-02  5.0088e-04  0:00:50 1680
   321  5.2201e-04  2.8299e-03  1.6847e-04  3.6594e-02  5.2237e-04  0:06:16 1679
   322  5.3798e-04  2.8309e-03  1.7146e-04  3.6106e-02  5.3832e-04  0:05:01 1678
   323  5.4985e-04  2.8332e-03  1.7785e-04  3.5573e-02  5.5018e-04  0:04:00 1677
   324  5.5599e-04  2.8362e-03  1.8324e-04  3.4985e-02  5.5632e-04  0:03:12 1676
   325  5.5576e-04  2.8341e-03  1.8783e-04  3.4317e-02  5.5609e-04  0:02:34 1675
   326  5.5075e-04  2.8366e-03  1.9055e-04  3.3806e-02  5.5107e-04  0:02:03 1674
   327  5.4113e-04  2.8408e-03  1.9242e-04  3.3112e-02  5.4144e-04  0:01:38 1673
   328  5.2658e-04  2.8453e-03  1.9493e-04  3.2532e-02  5.2687e-04  0:01:19 1672
   329  5.0846e-04  2.8499e-03  1.9369e-04  3.1899e-02  5.0873e-04  0:01:03 1671
   330  4.8600e-04  2.8490e-03  1.9198e-04  3.1233e-02  4.8624e-04  0:00:50 1670

  iter  continuity  x-velocity  y-velocity  z-velocity      energy     time/iter
   331  4.5997e-04  2.8467e-03  1.8937e-04  3.0242e-02  4.6019e-04  0:06:14 1669
   332  4.3090e-04  2.8443e-03  1.8603e-04  2.9169e-02  4.3110e-04  0:04:59 1668
   333  3.9923e-04  2.8408e-03  1.8198e-04  2.7958e-02  3.9939e-04  0:03:59 1667
   334  3.6549e-04  2.8356e-03  1.7741e-04  2.6578e-02  3.6560e-04  0:03:11 1666
   335  3.3056e-04  2.8376e-03  1.7307e-04  2.6047e-02  3.3067e-04  0:02:33 1665
   336  2.9397e-04  2.8329e-03  1.6537e-04  2.4056e-02  2.9403e-04  0:02:02 1664
   337  2.5677e-04  2.8255e-03  1.5831e-04  2.1876e-02  2.5674e-04  0:01:38 1663
   338  2.2046e-04  2.8181e-03  1.5165e-04  2.3588e-02  2.2029e-04  0:01:18 1662
   339  1.8587e-04  2.8098e-03  1.4284e-04  3.2495e-02  1.8554e-04  0:01:02 1661
   340  1.5244e-04  2.7983e-03  1.3503e-04  4.3431e-02  1.5195e-04  0:00:50 1660
   341  1.2508e-04  2.7834e-03  1.3053e-04  5.1523e-02  1.2434e-04  0:00:40 1659

  iter  continuity  x-velocity  y-velocity  z-velocity      energy     time/iter
   342  1.0747e-04  2.7666e-03  1.2492e-04  5.6816e-02  1.0643e-04  0:06:04 1658
   343  1.0083e-04  2.7495e-03  1.1807e-04  5.9671e-02  9.9415e-05  0:04:51 1657
   344  1.1197e-04  2.7334e-03  1.1452e-04  6.1285e-02  1.1046e-04  0:03:52 1656
   345  1.3202e-04  2.7188e-03  1.1130e-04  6.2207e-02  1.3064e-04  0:03:06 1655
   346  1.5584e-04  2.7070e-03  1.0999e-04  6.3191e-02  1.5462e-04  0:02:29 1654
   347  1.8172e-04  2.6998e-03  1.1164e-04  6.0225e-02  1.8063e-04  0:01:59 1653
   348  2.0812e-04  2.6958e-03  1.1195e-04  5.1648e-02  2.0712e-04  0:01:35 1652
   349  2.3310e-04  2.6936e-03  1.1091e-04  4.4166e-02  2.3220e-04  0:01:16 1651
   350  2.5823e-04  2.6939e-03  1.0803e-04  3.6281e-02  2.5748e-04  0:06:31 1650
   351  2.7810e-04  2.6909e-03  1.1139e-04  3.1227e-02  2.7745e-04  0:05:12 1649
   352  2.9373e-04  2.6833e-03  1.1550e-04  3.1680e-02  2.9315e-04  0:04:10 1648

  iter  continuity  x-velocity  y-velocity  z-velocity      energy     time/iter
   353  3.0739e-04  2.6805e-03  1.1850e-04  3.4619e-02  3.0686e-04  0:03:20 1647
   354  3.1815e-04  2.6771e-03  1.2108e-04  3.7073e-02  3.1765e-04  0:02:40 1646
   355  3.2605e-04  2.6723e-03  1.2332e-04  3.8494e-02  3.2560e-04  0:02:08 1645
   356  3.3117e-04  2.6611e-03  1.2510e-04  5.4457e-02  3.3077e-04  0:01:42 1644
   357  3.3326e-04  2.6469e-03  1.2680e-04  6.9176e-02  3.3289e-04  0:01:22 1643
   358  3.3359e-04  2.6319e-03  1.2486e-04  7.7546e-02  3.3325e-04  0:01:05 1642
   359  3.3113e-04  2.6181e-03  1.2417e-04  8.0757e-02  3.3082e-04  0:00:52 1641
   360  3.2511e-04  2.6046e-03  1.2447e-04  8.0021e-02  3.2483e-04  0:00:42 1640
   361  3.1574e-04  2.5890e-03  1.2601e-04  7.6957e-02  3.1548e-04  0:06:01 1639
   362  3.0375e-04  2.5655e-03  1.2521e-04  7.1494e-02  3.0350e-04  0:04:49 1638
   363  2.8976e-04  2.5368e-03  1.2208e-04  6.4735e-02  2.8953e-04  0:03:51 1637

  iter  continuity  x-velocity  y-velocity  z-velocity      energy     time/iter
   364  2.7422e-04  2.5080e-03  1.1818e-04  5.7467e-02  2.7402e-04  0:03:05 1636
   365  2.5756e-04  2.4714e-03  1.1415e-04  5.0564e-02  2.5736e-04  0:02:28 1635
   366  2.3999e-04  2.4380e-03  1.1031e-04  4.5619e-02  2.3974e-04  0:01:58 1634
   367  2.2108e-04  2.4109e-03  1.0735e-04  4.1227e-02  2.2080e-04  0:01:34 1633
   368  2.0100e-04  2.3874e-03  1.0434e-04  3.7961e-02  2.0074e-04  0:01:15 1632
   369  1.8059e-04  2.3688e-03  1.0084e-04  3.6009e-02  1.8032e-04  0:01:00 1631
   370  1.6012e-04  2.3532e-03  9.6565e-05  3.4851e-02  1.5983e-04  0:00:48 1630
   371  1.3974e-04  2.3386e-03  9.0162e-05  3.4101e-02  1.3948e-04  0:06:04 1629
   372  1.2129e-04  2.3269e-03  8.6143e-05  3.3589e-02  1.2108e-04  0:04:51 1628
   373  1.0627e-04  2.3181e-03  8.2895e-05  3.3178e-02  1.0602e-04  0:03:53 1627
   374  9.6254e-05  2.3118e-03  7.9918e-05  3.3458e-02  9.5892e-05  0:03:06 1626

  iter  continuity  x-velocity  y-velocity  z-velocity      energy     time/iter
   375  9.1360e-05  2.3063e-03  7.7508e-05  3.2485e-02  9.0862e-05  0:02:29 1625
   376  9.2630e-05  2.3014e-03  7.6400e-05  3.1132e-02  9.2009e-05  0:01:59 1624
   377  1.0024e-04  2.2968e-03  7.7883e-05  3.0494e-02  9.9488e-05  0:01:35 1623
   378  1.1382e-04  2.2962e-03  8.0802e-05  2.9799e-02  1.1305e-04  0:01:16 1622
   379  1.2500e-04  2.2850e-03  6.6197e-05  2.9966e-02  1.2435e-04  0:01:01 1621
   380  1.3756e-04  2.2665e-03  6.9953e-05  3.1400e-02  1.3695e-04  0:00:49 1620
   381  1.5028e-04  2.2504e-03  6.8498e-05  3.1001e-02  1.4974e-04  0:06:03 1619
   382  1.6169e-04  2.2388e-03  6.6852e-05  3.1271e-02  1.6119e-04  0:04:50 1618
   383  1.7063e-04  2.2212e-03  6.8043e-05  3.1419e-02  1.7013e-04  0:03:52 1617
   384  1.7989e-04  2.2025e-03  7.0101e-05  3.1755e-02  1.7937e-04  0:03:05 1616
   385  1.8856e-04  2.1725e-03  7.1701e-05  3.6861e-02  1.8794e-04  0:02:28 1615

  iter  continuity  x-velocity  y-velocity  z-velocity      energy     time/iter
   386  1.9627e-04  2.1394e-03  7.1797e-05  4.9931e-02  1.9558e-04  0:01:58 1614
   387  2.0262e-04  2.1061e-03  7.1919e-05  5.7889e-02  2.0190e-04  0:01:35 1613
   388  2.0737e-04  2.0740e-03  7.1804e-05  6.0295e-02  2.0665e-04  0:01:16 1612
   389  2.1023e-04  2.0431e-03  7.1747e-05  5.7358e-02  2.0951e-04  0:01:01 1611
   390  2.1131e-04  2.0160e-03  7.1581e-05  5.1617e-02  2.1060e-04  0:00:48 1610
   391  2.1047e-04  1.9914e-03  7.1502e-05  4.5739e-02  2.0977e-04  0:00:39 1609
   392  2.0771e-04  1.9691e-03  7.1305e-05  4.0862e-02  2.0701e-04  0:05:53 1608
   393  2.0309e-04  1.9484e-03  7.0853e-05  3.8277e-02  2.0239e-04  0:04:42 1607
   394  1.9671e-04  1.9290e-03  6.9496e-05  3.5661e-02  1.9601e-04  0:03:45 1606
   395  1.8864e-04  1.9101e-03  6.7079e-05  3.4599e-02  1.8797e-04  0:03:00 1605
   396  1.7928e-04  1.8910e-03  6.5640e-05  3.3813e-02  1.7862e-04  0:02:24 1604

  iter  continuity  x-velocity  y-velocity  z-velocity      energy     time/iter
   397  1.6877e-04  1.8731e-03  6.4650e-05  3.3077e-02  1.6810e-04  0:01:55 1603
   398  1.5698e-04  1.8566e-03  6.3682e-05  3.1767e-02  1.5629e-04  0:01:32 1602
   399  1.4374e-04  1.8396e-03  6.1069e-05  3.0152e-02  1.4302e-04  0:01:14 1601
   400  1.2995e-04  1.8240e-03  5.7749e-05  2.8270e-02  1.2920e-04  0:00:59 1600
   401  1.1581e-04  1.8091e-03  5.4626e-05  2.6529e-02  1.1505e-04  0:00:47 1599
   402  1.0200e-04  1.7959e-03  5.1703e-05  2.6327e-02  1.0122e-04  0:05:57 1598
   403  8.8475e-05  1.7818e-03  4.8940e-05  2.6604e-02  8.7607e-05  0:04:46 1597
   404  7.6437e-05  1.7688e-03  4.6402e-05  2.7910e-02  7.5474e-05  0:03:48 1596
   405  6.6479e-05  1.7558e-03  4.4013e-05  3.1456e-02  6.5427e-05  0:03:03 1595
   406  6.0418e-05  1.7444e-03  4.1587e-05  3.6807e-02  5.9313e-05  0:02:26 1594
   407  5.8165e-05  1.7303e-03  3.9260e-05  3.8906e-02  5.7048e-05  0:01:57 1593

  iter  continuity  x-velocity  y-velocity  z-velocity      energy     time/iter
   408  6.0650e-05  1.7157e-03  3.7482e-05  3.7512e-02  5.9540e-05  0:01:33 1592
   409  6.7096e-05  1.7026e-03  3.6558e-05  3.8139e-02  6.6109e-05  0:01:15 1591
   410  7.6123e-05  1.6907e-03  3.6191e-05  4.0338e-02  7.5297e-05  0:01:00 1590
   411  8.6640e-05  1.6800e-03  3.6749e-05  4.3160e-02  8.5960e-05  0:00:48 1589
   412  9.6881e-05  1.6681e-03  3.8734e-05  4.5960e-02  9.6341e-05  0:05:56 1588
   413  1.0714e-04  1.6559e-03  4.0935e-05  5.0038e-02  1.0666e-04  0:04:44 1587
   414  1.1550e-04  1.6423e-03  4.0551e-05  5.4823e-02  1.1507e-04  0:03:47 1586
   415  1.2281e-04  1.6275e-03  4.0486e-05  6.3787e-02  1.2244e-04  0:03:02 1585
   416  1.2956e-04  1.6121e-03  4.0659e-05  9.0954e-02  1.2924e-04  0:02:25 1584
   417  1.3528e-04  1.5966e-03  4.1394e-05  1.3089e-01  1.3500e-04  0:01:56 1583
   418  1.4021e-04  1.5846e-03  4.3019e-05  1.6732e-01  1.3997e-04  0:01:33 1582

  iter  continuity  x-velocity  y-velocity  z-velocity      energy     time/iter
   419  1.4388e-04  1.5750e-03  4.4897e-05  1.9049e-01  1.4367e-04  0:01:14 1581
   420  1.4613e-04  1.5670e-03  4.6645e-05  1.7742e-01  1.4594e-04  0:00:59 1580
   421  1.4712e-04  1.5613e-03  4.8198e-05  1.3141e-01  1.4693e-04  0:00:47 1579
   422  1.4499e-04  1.5490e-03  4.9761e-05  8.0025e-02  1.4483e-04  0:05:54 1578
   423  1.4289e-04  1.5429e-03  5.0474e-05  6.0423e-02  1.4275e-04  0:04:43 1577
   424  1.3995e-04  1.5409e-03  5.1193e-05  7.6669e-02  1.3982e-04  0:03:46 1576
   425  1.3605e-04  1.5416e-03  5.1852e-05  9.5413e-02  1.3591e-04  0:03:01 1575
   426  1.3126e-04  1.5443e-03  5.2483e-05  1.0386e-01  1.3110e-04  0:02:24 1574
   427  1.2588e-04  1.5494e-03  5.3047e-05  1.0304e-01  1.2570e-04  0:01:55 1573
   428  1.1957e-04  1.5519e-03  5.3581e-05  9.6585e-02  1.1937e-04  0:01:32 1572
   429  1.1266e-04  1.5479e-03  5.3214e-05  8.7280e-02  1.1246e-04  0:01:14 1571

  iter  continuity  x-velocity  y-velocity  z-velocity      energy     time/iter
   430  1.0639e-04  1.5472e-03  5.1360e-05  7.7021e-02  1.0616e-04  0:00:59 1570
   431  1.0055e-04  1.5474e-03  4.9801e-05  6.7539e-02  1.0029e-04  0:00:47 1569
   432  9.5170e-05  1.5466e-03  4.8579e-05  6.8582e-02  9.4860e-05  0:05:51 1568
   433  8.1033e-05  1.5210e-03  4.6533e-05  6.5472e-02  8.0686e-05  0:04:41 1567
   434  6.9141e-05  1.4997e-03  4.3902e-05  6.2482e-02  6.8718e-05  0:03:45 1566
   435  6.0351e-05  1.4823e-03  4.1277e-05  5.8716e-02  5.9789e-05  0:03:00 1565
   436  5.4554e-05  1.4666e-03  3.9652e-05  5.9079e-02  5.3859e-05  0:02:24 1564
   437  5.1918e-05  1.4526e-03  3.8271e-05  5.6711e-02  5.1140e-05  0:01:55 1563
   438  5.0645e-05  1.4430e-03  3.6726e-05  5.2859e-02  4.9799e-05  0:01:32 1562
   439  5.2196e-05  1.4405e-03  3.5483e-05  4.7336e-02  5.1360e-05  0:01:13 1561
   440  5.7560e-05  1.4375e-03  3.6057e-05  4.1158e-02  5.6808e-05  0:00:59 1560

  iter  continuity  x-velocity  y-velocity  z-velocity      energy     time/iter
   441  6.2105e-05  1.4293e-03  3.6759e-05  3.6319e-02  6.1419e-05  0:00:47 1559
   442  6.5923e-05  1.4143e-03  3.6541e-05  3.2671e-02  6.5287e-05  0:05:49 1558
   443  7.1884e-05  1.3982e-03  3.5092e-05  3.0363e-02  7.1337e-05  0:04:39 1557
   444  8.0557e-05  1.3821e-03  3.3465e-05  2.9069e-02  8.0109e-05  0:03:43 1556
   445  8.8490e-05  1.3673e-03  3.2872e-05  2.8246e-02  8.8090e-05  0:02:58 1555
   446  9.4559e-05  1.3537e-03  3.2785e-05  2.7846e-02  9.4179e-05  0:02:23 1554
   447  9.9264e-05  1.3419e-03  3.3676e-05  2.8391e-02  9.8890e-05  0:01:54 1553
   448  1.0291e-04  1.3326e-03  3.5285e-05  3.0290e-02  1.0252e-04  0:01:31 1552
   449  1.0593e-04  1.3271e-03  3.7270e-05  3.3868e-02  1.0551e-04  0:01:13 1551
   450  1.0788e-04  1.3241e-03  4.0031e-05  3.4704e-02  1.0745e-04  0:00:58 1550
   451  1.0986e-04  1.3226e-03  4.3331e-05  3.3211e-02  1.0942e-04  0:00:47 1549

  iter  continuity  x-velocity  y-velocity  z-velocity      energy     time/iter
   452  1.0953e-04  1.3211e-03  4.6492e-05  3.4491e-02  1.0912e-04  0:00:37 1548
   453  1.0686e-04  1.3167e-03  4.7906e-05  3.7189e-02  1.0647e-04  0:05:39 1547
   454  1.0311e-04  1.3117e-03  4.7764e-05  4.0656e-02  1.0273e-04  0:04:31 1546
   455  9.8392e-05  1.3056e-03  4.7176e-05  6.0359e-02  9.8002e-05  0:03:37 1545
   456  9.2964e-05  1.2986e-03  4.6290e-05  5.8978e-02  9.2558e-05  0:02:53 1544
   457  8.6929e-05  1.2909e-03  4.5162e-05  4.6747e-02  8.6522e-05  0:02:19 1543
   458  8.0245e-05  1.2827e-03  4.3968e-05  3.7826e-02  7.9838e-05  0:01:51 1542
   459  7.2974e-05  1.2736e-03  4.2644e-05  3.3741e-02  7.2562e-05  0:01:29 1541
   460  6.5336e-05  1.2638e-03  4.1072e-05  3.2364e-02  6.4917e-05  0:01:11 1540
   461  5.7411e-05  1.2528e-03  3.9434e-05  3.1945e-02  5.7000e-05  0:00:57 1539
   462  4.9502e-05  1.2416e-03  3.7563e-05  3.1171e-02  4.9101e-05  0:00:45 1538

  iter  continuity  x-velocity  y-velocity  z-velocity      energy     time/iter
   463  4.1991e-05  1.2304e-03  3.5574e-05  2.9909e-02  4.1586e-05  0:05:44 1537
   464  3.5392e-05  1.2194e-03  3.3647e-05  2.8475e-02  3.4949e-05  0:04:35 1536
   465  3.0267e-05  1.2072e-03  3.1640e-05  3.3759e-02  2.9756e-05  0:03:40 1535
   466  2.7621e-05  1.1961e-03  2.9753e-05  4.1019e-02  2.7085e-05  0:02:56 1534
   467  2.8474e-05  1.1857e-03  2.8290e-05  4.3548e-02  2.7977e-05  0:02:20 1533
   468  3.2046e-05  1.1759e-03  2.7077e-05  4.3235e-02  3.1631e-05  0:01:52 1532
   469  3.7357e-05  1.1662e-03  2.6049e-05  4.0495e-02  3.7000e-05  0:01:30 1531
   470  4.2609e-05  1.1546e-03  2.5214e-05  3.5965e-02  4.2316e-05  0:01:12 1530
   471  4.8590e-05  1.1449e-03  2.3950e-05  3.1195e-02  4.8364e-05  0:06:03 1529
   472  5.4527e-05  1.1364e-03  2.3511e-05  2.7068e-02  5.4345e-05  0:04:50 1528
   473  6.0068e-05  1.1287e-03  2.3648e-05  2.3734e-02  5.9906e-05  0:03:52 1527

  iter  continuity  x-velocity  y-velocity  z-velocity      energy     time/iter
   474  6.5055e-05  1.1214e-03  2.4123e-05  2.0209e-02  6.4900e-05  0:03:06 1526
   475  6.9385e-05  1.1144e-03  2.4755e-05  1.7806e-02  6.9227e-05  0:02:28 1525
   476  7.2771e-05  1.1073e-03  2.4984e-05  1.6250e-02  7.2614e-05  0:01:59 1524
   477  7.5422e-05  1.1010e-03  2.5329e-05  1.5221e-02  7.5271e-05  0:01:35 1523
   478  7.7221e-05  1.0951e-03  2.5910e-05  1.4383e-02  7.7079e-05  0:01:16 1522
   479  7.7897e-05  1.0887e-03  2.6677e-05  1.3723e-02  7.7772e-05  0:01:01 1521
   480  7.7031e-05  1.0800e-03  2.7128e-05  1.3354e-02  7.6942e-05  0:00:48 1520
   481  7.6042e-05  1.0734e-03  2.6881e-05  1.3026e-02  7.5964e-05  0:05:43 1519
   482  7.4493e-05  1.0679e-03  2.6923e-05  1.2890e-02  7.4411e-05  0:04:34 1518
   483  7.2270e-05  1.0630e-03  2.6950e-05  1.2970e-02  7.2183e-05  0:03:39 1517
   484  6.9359e-05  1.0583e-03  2.6833e-05  1.3227e-02  6.9271e-05  0:02:55 1516

  iter  continuity  x-velocity  y-velocity  z-velocity      energy     time/iter
   485  6.5766e-05  1.0531e-03  2.6678e-05  1.3357e-02  6.5673e-05  0:02:20 1515
   486  6.1598e-05  1.0479e-03  2.6467e-05  1.3551e-02  6.1498e-05  0:01:52 1514
   487  5.6932e-05  1.0429e-03  2.6137e-05  1.3909e-02  5.6823e-05  0:01:29 1513
   488  5.1348e-05  1.0347e-03  2.5480e-05  1.4209e-02  5.1225e-05  0:01:12 1512
   489  4.6263e-05  1.0282e-03  2.4579e-05  1.4073e-02  4.6129e-05  0:00:57 1511
   490  4.1161e-05  1.0221e-03  2.3970e-05  1.3699e-02  4.1016e-05  0:00:46 1510
   491  3.6417e-05  1.0159e-03  2.3206e-05  1.5750e-02  3.6248e-05  0:00:37 1509
   492  3.1337e-05  1.0094e-03  2.2384e-05  2.0340e-02  3.1116e-05  0:05:31 1508
   493  2.6395e-05  1.0026e-03  2.1375e-05  1.3532e-02  2.6101e-05  0:04:24 1507
   494  2.2987e-05  9.9606e-04  2.0197e-05  2.0188e-02  2.2624e-05  0:03:31 1506
   495  2.1639e-05  9.9041e-04  1.9109e-05  3.8662e-02  2.1203e-05  0:02:49 1505

  iter  continuity  x-velocity  y-velocity  z-velocity      energy     time/iter
   496  2.2240e-05  9.8555e-04  1.8292e-05  3.1680e-02  2.1765e-05  0:02:15 1504
   497  2.5187e-05  9.8167e-04  1.7794e-05  2.9296e-02  2.4742e-05  0:01:48 1503
   498  2.9287e-05  9.7837e-04  1.7663e-05  3.0119e-02  2.8887e-05  0:01:26 1502
   499  3.3864e-05  9.7585e-04  1.7700e-05  3.2799e-02  3.3509e-05  0:01:09 1501
   500  3.8490e-05  9.7394e-04  1.7870e-05  3.5177e-02  3.8173e-05  0:00:55 1500
   501  4.2609e-05  9.7160e-04  1.7962e-05  3.2293e-02  4.2321e-05  0:00:44 1499
   502  4.6599e-05  9.6880e-04  1.8219e-05  2.4265e-02  4.6337e-05  0:05:35 1498
   503  5.0052e-05  9.6615e-04  1.8586e-05  1.9121e-02  4.9848e-05  0:04:28 1497
   504  5.3284e-05  9.6373e-04  1.9060e-05  2.0516e-02  5.3104e-05  0:03:34 1496
   505  5.6049e-05  9.6152e-04  1.9822e-05  2.7290e-02  5.5870e-05  0:02:51 1495
   506  5.8268e-05  9.5931e-04  2.0576e-05  3.6474e-02  5.8084e-05  0:02:17 1494

  iter  continuity  x-velocity  y-velocity  z-velocity      energy     time/iter
   507  5.9964e-05  9.5679e-04  2.1154e-05  4.5634e-02  5.9769e-05  0:01:49 1493
   508  6.0884e-05  9.5364e-04  2.1548e-05  5.1952e-02  6.0696e-05  0:01:27 1492
   509  6.1093e-05  9.5007e-04  2.2079e-05  5.5864e-02  6.0916e-05  0:01:10 1491
   510  6.0672e-05  9.4635e-04  2.2558e-05  5.9145e-02  6.0503e-05  0:00:56 1490
   511  5.9675e-05  9.4281e-04  2.2915e-05  6.2492e-02  5.9507e-05  0:00:45 1489
   512  5.8026e-05  9.3845e-04  2.3093e-05  6.3636e-02  5.7855e-05  0:00:36 1488
   513  5.5761e-05  9.3315e-04  2.3025e-05  5.5754e-02  5.5589e-05  0:05:26 1487
   514  5.3009e-05  9.2749e-04  2.2736e-05  4.3315e-02  5.2844e-05  0:04:21 1486
   515  4.9767e-05  9.2113e-04  2.2436e-05  3.2660e-02  4.9612e-05  0:03:28 1485
   516  4.5497e-05  9.1176e-04  2.1266e-05  2.7928e-02  4.5342e-05  0:02:47 1484
   517  4.1635e-05  9.0434e-04  2.0160e-05  2.7139e-02  4.1479e-05  0:02:13 1483

  iter  continuity  x-velocity  y-velocity  z-velocity      energy     time/iter
   518  3.7462e-05  8.9751e-04  1.9326e-05  2.8241e-02  3.7301e-05  0:01:46 1482
   519  3.3034e-05  8.9108e-04  1.8483e-05  2.9265e-02  3.2867e-05  0:01:25 1481
   520  2.8491e-05  8.8499e-04  1.7607e-05  2.9313e-02  2.8318e-05  0:01:08 1480
   521  2.4002e-05  8.7922e-04  1.6714e-05  2.8296e-02  2.3820e-05  0:00:54 1479
   522  1.9782e-05  8.7364e-04  1.5807e-05  2.6596e-02  1.9598e-05  0:00:43 1478
   523  1.6173e-05  8.6794e-04  1.4951e-05  2.4427e-02  1.5986e-05  0:05:30 1477
   524  1.3795e-05  8.6192e-04  1.4213e-05  2.2431e-02  1.3601e-05  0:04:24 1476
   525  1.3317e-05  8.5637e-04  1.3565e-05  2.0439e-02  1.3136e-05  0:03:31 1475
   526  1.4724e-05  8.5113e-04  1.3028e-05  1.8540e-02  1.4580e-05  0:02:49 1474
   527  1.7067e-05  8.4600e-04  1.2550e-05  1.6822e-02  1.6932e-05  0:02:15 1473
   528  2.0298e-05  8.4142e-04  1.2172e-05  1.5488e-02  2.0185e-05  0:01:48 1472

  iter  continuity  x-velocity  y-velocity  z-velocity      energy     time/iter
   529  2.3864e-05  8.3709e-04  1.2037e-05  1.4486e-02  2.3775e-05  0:01:26 1471
   530  2.7401e-05  8.3212e-04  1.2001e-05  1.4005e-02  2.7337e-05  0:01:09 1470
   531  3.0735e-05  8.2746e-04  1.2071e-05  1.4040e-02  3.0688e-05  0:00:55 1469
   532  3.3753e-05  8.2243e-04  1.2223e-05  1.4081e-02  3.3717e-05  0:00:44 1468
   533  3.6415e-05  8.1761e-04  1.2301e-05  1.2776e-02  3.6384e-05  0:05:29 1467
   534  3.8650e-05  8.1331e-04  1.2532e-05  1.4901e-02  3.8615e-05  0:04:23 1466
   535  4.0530e-05  8.0947e-04  1.2931e-05  1.8079e-02  4.0493e-05  0:03:30 1465
   536  4.1968e-05  8.0573e-04  1.3364e-05  2.1857e-02  4.1932e-05  0:02:48 1464
   537  4.2951e-05  8.0166e-04  1.3777e-05  2.5236e-02  4.2916e-05  0:02:14 1463
   538  4.3628e-05  7.9642e-04  1.4070e-05  3.1105e-02  4.3595e-05  0:01:47 1462
   539  4.3695e-05  7.9176e-04  1.4325e-05  3.5740e-02  4.3662e-05  0:01:26 1461

  iter  continuity  x-velocity  y-velocity  z-velocity      energy     time/iter
   540  4.3310e-05  7.8755e-04  1.4516e-05  3.7025e-02  4.3275e-05  0:01:09 1460
   541  4.2550e-05  7.8357e-04  1.4585e-05  3.7513e-02  4.2512e-05  0:00:55 1459
   542  4.1398e-05  7.7951e-04  1.4603e-05  3.7067e-02  4.1352e-05  0:00:44 1458
   543  3.9903e-05  7.7549e-04  1.4570e-05  3.5765e-02  3.9857e-05  0:05:26 1457
   544  3.7880e-05  7.7196e-04  1.4542e-05  3.4719e-02  3.7844e-05  0:04:21 1456
   545  3.5512e-05  7.6880e-04  1.4418e-05  3.1324e-02  3.5476e-05  0:03:29 1455
   546  3.2859e-05  7.6587e-04  1.4222e-05  2.8631e-02  3.2813e-05  0:02:47 1454
   547  2.9992e-05  7.6303e-04  1.3959e-05  2.6286e-02  2.9932e-05  0:02:13 1453
   548  2.6917e-05  7.6043e-04  1.3440e-05  2.4290e-02  2.6845e-05  0:01:47 1452
   549  2.3726e-05  7.5782e-04  1.2775e-05  2.2649e-02  2.3648e-05  0:01:25 1451
   550  2.0444e-05  7.5497e-04  1.2071e-05  2.1209e-02  2.0366e-05  0:01:08 1450

  iter  continuity  x-velocity  y-velocity  z-velocity      energy     time/iter
   551  1.7224e-05  7.5188e-04  1.1551e-05  1.9590e-02  1.7131e-05  0:00:54 1449
   552  1.4365e-05  7.4847e-04  1.1053e-05  1.8220e-02  1.4232e-05  0:00:44 1448
   553  1.1889e-05  7.4502e-04  1.0531e-05  1.7080e-02  1.1709e-05  0:05:24 1447
   554  1.0130e-05  7.4155e-04  1.0085e-05  1.6171e-02  9.9045e-06  0:04:19 1446
   555  9.5400e-06  7.3811e-04  9.6987e-06  1.5456e-02  9.2939e-06  0:03:27 1445
   556  1.0282e-05  7.3459e-04  9.3742e-06  1.4957e-02  1.0051e-05  0:02:46 1444
   557  1.1975e-05  7.3078e-04  9.1600e-06  1.4400e-02  1.1768e-05  0:02:12 1443
   558  1.4255e-05  7.2691e-04  9.0142e-06  1.4038e-02  1.4075e-05  0:01:46 1442
   559  1.6725e-05  7.2310e-04  8.8848e-06  1.3753e-02  1.6571e-05  0:01:25 1441
   560  1.9197e-05  7.1936e-04  8.8384e-06  1.3609e-02  1.9062e-05  0:01:08 1440
   561  2.1545e-05  7.1566e-04  8.8622e-06  1.3454e-02  2.1424e-05  0:00:54 1439

  iter  continuity  x-velocity  y-velocity  z-velocity      energy     time/iter
   562  2.3727e-05  7.1190e-04  8.9580e-06  1.3335e-02  2.3617e-05  0:00:43 1438
   563  2.5742e-05  7.0878e-04  9.2124e-06  1.3248e-02  2.5644e-05  0:00:35 1437
   564  2.7517e-05  7.0524e-04  9.3979e-06  1.3193e-02  2.7429e-05  0:05:15 1436
   565  2.8930e-05  7.0134e-04  9.5443e-06  1.3142e-02  2.8850e-05  0:04:12 1435
   566  3.0007e-05  6.9731e-04  9.7504e-06  1.3091e-02  2.9930e-05  0:03:21 1434
   567  3.0768e-05  6.9326e-04  9.9713e-06  1.3083e-02  3.0694e-05  0:02:41 1433
   568  3.1218e-05  6.8923e-04  1.0172e-05  1.3127e-02  3.1145e-05  0:02:09 1432
   569  3.1357e-05  6.8520e-04  1.0338e-05  1.3205e-02  3.1285e-05  0:01:43 1431
   570  3.1188e-05  6.8118e-04  1.0462e-05  1.3298e-02  3.1116e-05  0:01:22 1430
   571  3.0714e-05  6.7709e-04  1.0537e-05  1.3404e-02  3.0643e-05  0:01:06 1429
   572  2.9942e-05  6.7323e-04  1.0559e-05  1.3526e-02  2.9881e-05  0:00:53 1428

  iter  continuity  x-velocity  y-velocity  z-velocity      energy     time/iter
   573  2.8907e-05  6.6955e-04  1.0535e-05  1.3689e-02  2.8852e-05  0:00:42 1427
   574  2.7620e-05  6.6596e-04  1.0468e-05  1.3934e-02  2.7564e-05  0:05:19 1426
   575  2.6106e-05  6.6243e-04  1.0347e-05  1.4368e-02  2.6047e-05  0:04:15 1425
   576  2.4406e-05  6.5902e-04  1.0177e-05  1.5304e-02  2.4343e-05  0:03:24 1424
   577  2.2583e-05  6.5583e-04  9.9803e-06  1.7269e-02  2.2516e-05  0:02:43 1423
   578  2.0694e-05  6.5294e-04  9.8043e-06  2.0735e-02  2.0623e-05  0:02:10 1422
   579  1.8744e-05  6.5041e-04  9.6763e-06  2.4126e-02  1.8673e-05  0:01:44 1421
   580  1.6801e-05  6.4838e-04  9.6133e-06  2.6578e-02  1.6729e-05  0:01:23 1420
   581  1.4787e-05  6.4686e-04  9.4052e-06  2.8036e-02  1.4709e-05  0:01:07 1419
   582  1.2769e-05  6.4553e-04  9.2425e-06  2.8520e-02  1.2672e-05  0:00:53 1418
   583  1.0649e-05  6.4410e-04  9.0071e-06  2.7424e-02  1.0531e-05  0:00:43 1417

  iter  continuity  x-velocity  y-velocity  z-velocity      energy     time/iter
   584  8.5326e-06  6.4189e-04  8.4225e-06  2.3336e-02  8.3992e-06  0:05:17 1416
   585  7.1121e-06  6.3981e-04  7.8408e-06  2.0138e-02  6.9736e-06  0:04:14 1415
   586  6.4877e-06  6.3787e-04  7.4728e-06  1.9892e-02  6.3622e-06  0:03:23 1414
   587  6.7641e-06  6.3585e-04  7.1530e-06  2.0860e-02  6.6713e-06  0:02:42 1413
   588  7.9504e-06  6.3384e-04  6.8324e-06  2.1679e-02  7.8902e-06  0:02:10 1412
   589  9.5848e-06  6.3193e-04  6.6085e-06  2.2035e-02  9.5454e-06  0:01:44 1411
   590  1.1339e-05  6.3011e-04  6.5182e-06  2.2000e-02  1.1310e-05  0:01:23 1410
   591  1.3056e-05  6.2835e-04  6.5234e-06  2.1731e-02  1.3033e-05  0:01:06 1409
   592  1.4657e-05  6.2659e-04  6.5786e-06  2.1393e-02  1.4638e-05  0:00:53 1408
   593  1.6101e-05  6.2489e-04  6.6065e-06  2.1099e-02  1.6089e-05  0:00:42 1407
   594  1.7377e-05  6.2349e-04  6.7734e-06  2.0899e-02  1.7366e-05  0:00:34 1406

  iter  continuity  x-velocity  y-velocity  z-velocity      energy     time/iter
   595  1.8468e-05  6.2215e-04  7.0015e-06  2.0727e-02  1.8454e-05  0:05:08 1405
   596  1.9356e-05  6.2101e-04  7.2405e-06  2.0700e-02  1.9338e-05  0:04:06 1404
   597  2.0056e-05  6.1981e-04  7.4402e-06  2.0764e-02  2.0038e-05  0:03:17 1403
   598  2.0581e-05  6.1854e-04  7.6802e-06  2.0998e-02  2.0564e-05  0:02:37 1402
   599  2.1101e-05  6.1695e-04  8.0063e-06  2.1344e-02  2.1081e-05  0:02:06 1401
   600  2.1011e-05  6.1533e-04  8.4715e-06  2.1765e-02  2.0988e-05  0:01:41 1400
   601  2.0685e-05  6.1407e-04  8.3120e-06  2.2232e-02  2.0658e-05  0:01:20 1399
   602  2.0162e-05  6.1318e-04  7.9369e-06  2.2724e-02  2.0132e-05  0:01:04 1398
   603  1.9583e-05  6.1222e-04  7.7999e-06  2.3210e-02  1.9557e-05  0:00:51 1397
   604  1.9039e-05  6.1100e-04  7.7610e-06  2.3749e-02  1.9018e-05  0:00:41 1396
   605  1.8131e-05  6.0965e-04  7.7970e-06  2.4350e-02  1.8107e-05  0:05:12 1395

  iter  continuity  x-velocity  y-velocity  z-velocity      energy     time/iter
   606  1.7005e-05  6.0804e-04  7.6740e-06  2.4596e-02  1.6972e-05  0:04:09 1394
   607  1.5835e-05  6.0640e-04  7.4469e-06  2.4986e-02  1.5792e-05  0:03:19 1393
   608  1.4575e-05  6.0481e-04  7.2298e-06  2.5442e-02  1.4524e-05  0:02:39 1392
   609  1.3230e-05  6.0325e-04  7.0232e-06  2.5933e-02  1.3172e-05  0:02:07 1391
   610  1.1828e-05  6.0170e-04  6.8192e-06  2.6444e-02  1.1762e-05  0:01:42 1390
   611  1.0384e-05  5.9999e-04  6.6064e-06  2.6966e-02  1.0308e-05  0:01:21 1389
   612  8.8950e-06  5.9756e-04  6.3751e-06  2.7501e-02  8.8048e-06  0:01:05 1388
   613  7.5014e-06  5.9510e-04  6.1398e-06  2.8049e-02  7.3932e-06  0:00:52 1387
   614  6.2943e-06  5.9275e-04  5.9168e-06  2.8610e-02  6.1663e-06  0:00:42 1386
   615  5.3555e-06  5.9054e-04  5.6747e-06  2.9186e-02  5.2265e-06  0:05:10 1385
   616  5.2137e-06  5.8886e-04  5.5939e-06  2.9787e-02  5.1045e-06  0:04:08 1384

  iter  continuity  x-velocity  y-velocity  z-velocity      energy     time/iter
   617  5.4284e-06  5.8674e-04  5.3126e-06  3.0403e-02  5.3343e-06  0:03:18 1383
   618  5.7926e-06  5.8385e-04  5.0873e-06  3.1033e-02  5.7144e-06  0:02:39 1382
   619  6.4411e-06  5.8081e-04  4.9093e-06  3.1685e-02  6.3657e-06  0:02:07 1381
   620  7.2779e-06  5.7727e-04  4.8132e-06  3.2347e-02  7.2038e-06  0:01:41 1380
   621  8.2901e-06  5.7373e-04  4.7516e-06  3.3333e-02  8.2134e-06  0:01:21 1379
   622  9.3469e-06  5.7049e-04  4.8671e-06  3.4337e-02  9.2706e-06  0:01:05 1378
   623  1.0408e-05  5.6752e-04  5.1002e-06  3.5275e-02  1.0336e-05  0:00:52 1377
   624  1.1331e-05  5.6465e-04  5.2558e-06  3.6128e-02  1.1266e-05  0:00:41 1376
   625  1.2019e-05  5.6180e-04  5.3282e-06  3.6869e-02  1.1959e-05  0:00:33 1375
   626  1.2496e-05  5.5893e-04  5.2644e-06  3.7495e-02  1.2440e-05  0:05:01 1374
   627  1.2802e-05  5.5599e-04  5.1722e-06  3.8071e-02  1.2750e-05  0:04:01 1373

  iter  continuity  x-velocity  y-velocity  z-velocity      energy     time/iter
   628  1.3048e-05  5.5315e-04  5.1429e-06  3.8659e-02  1.2998e-05  0:03:13 1372
   629  1.3214e-05  5.5031e-04  5.1851e-06  3.9304e-02  1.3165e-05  0:02:34 1371
   630  1.3281e-05  5.4752e-04  5.2245e-06  3.9987e-02  1.3232e-05  0:02:03 1370
   631  1.3249e-05  5.4488e-04  5.2470e-06  4.0697e-02  1.3202e-05  0:01:38 1369
   632  1.3089e-05  5.4228e-04  5.2553e-06  4.1440e-02  1.3044e-05  0:01:19 1368
   633  1.2799e-05  5.3971e-04  5.2441e-06  4.2242e-02  1.2757e-05  0:01:03 1367
   634  1.2393e-05  5.3719e-04  5.2042e-06  4.3079e-02  1.2353e-05  0:00:50 1366
   635  1.1843e-05  5.3461e-04  5.1195e-06  4.3945e-02  1.1808e-05  0:00:40 1365
   636  1.1177e-05  5.3192e-04  5.0431e-06  4.4895e-02  1.1145e-05  0:05:05 1364
   637  1.0478e-05  5.2930e-04  4.9770e-06  4.5788e-02  1.0448e-05  0:04:04 1363
   638  9.7198e-06  5.2684e-04  4.9544e-06  4.6718e-02  9.6899e-06  0:03:15 1362

  iter  continuity  x-velocity  y-velocity  z-velocity      energy     time/iter
   639  8.8904e-06  5.2447e-04  4.9239e-06  4.7673e-02  8.8608e-06  0:02:36 1361
   640  8.0161e-06  5.2219e-04  4.8450e-06  4.8656e-02  7.9856e-06  0:02:05 1360
   641  7.1176e-06  5.1997e-04  4.7319e-06  4.9666e-02  7.0850e-06  0:01:40 1359
   642  6.2161e-06  5.1778e-04  4.6227e-06  5.0790e-02  6.1792e-06  0:01:20 1358
   643  5.3196e-06  5.1560e-04  4.5033e-06  5.2320e-02  5.2977e-06  0:01:04 1357
   644  4.5287e-06  5.1354e-04  4.3218e-06  5.4178e-02  4.5195e-06  0:00:51 1356
   645  3.8210e-06  5.1158e-04  4.2180e-06  5.6239e-02  3.8107e-06  0:00:41 1355
   646  3.3146e-06  5.0966e-04  4.1525e-06  5.8346e-02  3.2915e-06  0:05:03 1354
   647  3.1197e-06  5.0770e-04  4.0636e-06  6.0366e-02  3.0790e-06  0:04:02 1353
   648  3.2737e-06  5.0581e-04  3.9719e-06  6.2219e-02  3.2226e-06  0:03:14 1352
   649  3.5995e-06  5.0384e-04  3.8888e-06  6.3876e-02  3.5458e-06  0:02:35 1351

  iter  continuity  x-velocity  y-velocity  z-velocity      energy     time/iter
   650  4.0856e-06  5.0174e-04  3.7906e-06  6.5356e-02  4.0382e-06  0:02:04 1350
   651  4.6802e-06  4.9954e-04  3.7069e-06  6.6725e-02  4.6451e-06  0:01:39 1349
   652  5.3596e-06  4.9748e-04  3.6782e-06  6.8102e-02  5.3303e-06  0:01:19 1348
   653  6.0045e-06  4.9550e-04  3.6980e-06  6.9521e-02  5.9777e-06  0:01:03 1347
   654  6.5970e-06  4.9356e-04  3.7150e-06  7.1000e-02  6.5710e-06  0:00:51 1346
   655  7.1117e-06  4.9152e-04  3.7154e-06  7.2460e-02  7.0860e-06  0:00:40 1345
   656  7.5592e-06  4.8946e-04  3.7103e-06  7.3987e-02  7.5335e-06  0:05:01 1344
   657  7.9319e-06  4.8746e-04  3.7120e-06  7.5319e-02  7.9059e-06  0:04:01 1343
   658  8.2204e-06  4.8551e-04  3.7210e-06  7.6487e-02  8.1937e-06  0:03:12 1342
   659  8.4142e-06  4.8362e-04  3.7282e-06  7.7624e-02  8.3863e-06  0:02:34 1341
   660  8.5448e-06  4.8184e-04  3.7116e-06  7.8744e-02  8.5174e-06  0:02:03 1340

  iter  continuity  x-velocity  y-velocity  z-velocity      energy     time/iter
   661  8.6690e-06  4.8026e-04  3.7041e-06  7.9857e-02  8.6454e-06  0:01:38 1339
   662  8.7114e-06  4.7878e-04  3.7735e-06  8.1018e-02  8.6891e-06  0:01:19 1338
   663  8.6191e-06  4.7737e-04  3.8560e-06  8.2241e-02  8.5966e-06  0:01:03 1337
   664  8.4019e-06  4.7599e-04  3.9374e-06  8.3578e-02  8.3753e-06  0:00:50 1336
   665  8.0876e-06  4.7465e-04  3.9958e-06  8.5019e-02  8.0542e-06  0:00:40 1335
   666  7.7234e-06  4.7313e-04  4.0271e-06  8.6592e-02  7.6850e-06  0:00:32 1334
   667  7.3792e-06  4.7150e-04  4.0787e-06  8.8309e-02  7.3364e-06  0:04:52 1333
   668  7.1201e-06  4.6980e-04  4.1408e-06  9.0059e-02  7.0779e-06  0:03:54 1332
   669  6.9693e-06  4.6809e-04  4.3238e-06  9.1847e-02  6.9260e-06  0:03:07 1331
   670  6.5103e-06  4.6644e-04  4.5807e-06  9.3637e-02  6.4588e-06  0:02:29 1330
   671  5.2515e-06  4.6530e-04  3.8483e-06  9.5366e-02  5.1753e-06  0:01:59 1329

  iter  continuity  x-velocity  y-velocity  z-velocity      energy     time/iter
   672  4.5202e-06  4.6427e-04  3.5632e-06  9.7045e-02  4.4445e-06  0:01:35 1328
   673  4.2843e-06  4.6286e-04  3.3813e-06  9.8505e-02  4.2162e-06  0:01:16 1327
   674  4.5999e-06  4.6135e-04  3.4015e-06  9.9867e-02  4.5359e-06  0:01:01 1326
   675  3.6054e-06  4.5971e-04  3.5639e-06  1.0118e-01  3.5097e-06  0:00:49 1325
   676  2.8614e-06  4.5812e-04  3.3927e-06  1.0248e-01  2.7274e-06  0:00:39 1324
   677  2.6259e-06  4.5657e-04  3.1285e-06  1.0378e-01  2.4754e-06  0:04:56 1323
   678  2.6854e-06  4.5505e-04  2.9548e-06  1.0511e-01  2.5394e-06  0:03:56 1322
   679  2.9156e-06  4.5352e-04  2.8524e-06  1.0650e-01  2.7819e-06  0:03:09 1321
   680  3.2294e-06  4.5196e-04  2.7828e-06  1.0796e-01  3.1085e-06  0:02:31 1320
   681  3.5740e-06  4.5041e-04  2.7459e-06  1.0948e-01  3.4703e-06  0:02:01 1319
   682  3.9284e-06  4.4900e-04  2.7148e-06  1.1098e-01  3.8483e-06  0:01:37 1318

  iter  continuity  x-velocity  y-velocity  z-velocity      energy     time/iter
   683  4.3026e-06  4.4766e-04  2.6988e-06  1.1246e-01  4.2389e-06  0:01:17 1317
   684  4.8046e-06  4.4682e-04  2.8821e-06  1.1389e-01  4.7529e-06  0:01:02 1316
   685  5.3512e-06  4.4566e-04  2.8514e-06  1.1535e-01  5.3123e-06  0:05:12 1315
   686  5.6549e-06  4.4421e-04  2.6587e-06  1.1680e-01  5.6230e-06  0:04:10 1314
   687  5.8042e-06  4.4267e-04  2.5946e-06  1.1819e-01  5.7747e-06  0:03:20 1313
   688  5.8884e-06  4.4109e-04  2.5851e-06  1.1953e-01  5.8566e-06  0:02:40 1312
   689  5.9465e-06  4.3951e-04  2.6119e-06  1.2086e-01  5.9136e-06  0:02:08 1311
   690  5.9855e-06  4.3798e-04  2.6485e-06  1.2222e-01  5.9527e-06  0:01:42 1310
   691  6.0369e-06  4.3651e-04  2.7584e-06  1.2361e-01  6.0051e-06  0:01:21 1309
   692  6.0581e-06  4.3506e-04  2.8266e-06  1.2500e-01  6.0275e-06  0:01:05 1308
   693  5.9377e-06  4.3360e-04  2.8261e-06  1.2647e-01  5.9086e-06  0:00:52 1307

  iter  continuity  x-velocity  y-velocity  z-velocity      energy     time/iter
   694  5.7118e-06  4.3218e-04  2.8090e-06  1.2797e-01  5.6856e-06  0:00:42 1306
   695  5.5256e-06  4.3086e-04  2.7745e-06  1.2953e-01  5.5015e-06  0:04:54 1305
   696  5.5712e-06  4.2981e-04  2.7726e-06  1.3120e-01  5.5485e-06  0:03:55 1304
   697  5.6815e-06  4.2898e-04  2.9283e-06  1.3255e-01  5.6576e-06  0:03:08 1303
   698  5.7372e-06  4.2840e-04  3.1816e-06  1.3403e-01  5.7151e-06  0:02:30 1302
   699  5.7786e-06  4.2814e-04  3.4143e-06  1.3555e-01  5.7574e-06  0:02:00 1301
   700  5.6940e-06  4.2805e-04  3.6255e-06  1.3705e-01  5.6747e-06  0:01:36 1300
   701  4.9807e-06  4.2718e-04  3.7311e-06  1.3848e-01  4.9605e-06  0:01:17 1299
   702  4.0484e-06  4.2583e-04  3.4459e-06  1.3982e-01  4.0269e-06  0:01:01 1298
   703  3.1987e-06  4.2435e-04  2.9887e-06  1.4111e-01  3.1775e-06  0:00:49 1297
   704  2.6019e-06  4.2293e-04  2.7792e-06  1.4234e-01  2.5983e-06  0:00:39 1296

  iter  continuity  x-velocity  y-velocity  z-velocity      energy     time/iter
   705  2.2793e-06  4.2153e-04  2.6041e-06  1.4354e-01  2.2953e-06  0:04:50 1295
   706  2.0908e-06  4.2010e-04  2.4526e-06  1.4471e-01  2.1193e-06  0:03:52 1294
   707  2.0016e-06  4.1868e-04  2.3573e-06  1.4584e-01  2.0383e-06  0:03:06 1293
   708  2.0075e-06  4.1728e-04  2.2931e-06  1.4695e-01  2.0499e-06  0:02:28 1292
   709  2.0964e-06  4.1590e-04  2.2465e-06  1.4799e-01  2.1418e-06  0:01:59 1291
   710  2.2544e-06  4.1453e-04  2.2165e-06  1.4898e-01  2.2994e-06  0:01:35 1290
   711  2.4571e-06  4.1319e-04  2.2028e-06  1.4991e-01  2.4993e-06  0:01:16 1289
   712  2.6955e-06  4.1187e-04  2.2068e-06  1.5077e-01  2.7341e-06  0:01:01 1288
   713  2.9507e-06  4.1055e-04  2.2129e-06  1.5164e-01  2.9857e-06  0:00:48 1287
   714  3.1948e-06  4.0924e-04  2.2124e-06  1.5251e-01  3.2266e-06  0:00:39 1286
   715  3.4082e-06  4.0795e-04  2.2087e-06  1.5337e-01  3.4372e-06  0:00:31 1285

  iter  continuity  x-velocity  y-velocity  z-velocity      energy     time/iter
   716  3.5870e-06  4.0670e-04  2.2059e-06  1.5421e-01  3.6139e-06  0:04:42 1284
   717  3.7307e-06  4.0545e-04  2.2058e-06  1.5503e-01  3.7549e-06  0:03:45 1283
   718  3.8386e-06  4.0420e-04  2.2084e-06  1.5583e-01  3.8597e-06  0:03:00 1282
   719  3.9104e-06  4.0296e-04  2.2115e-06  1.5662e-01  3.9285e-06  0:02:24 1281
   720  3.9478e-06  4.0173e-04  2.2133e-06  1.5739e-01  3.9631e-06  0:01:55 1280
   721  3.9550e-06  4.0051e-04  2.2137e-06  1.5814e-01  3.9679e-06  0:01:32 1279
   722  3.9282e-06  3.9930e-04  2.2151e-06  1.5887e-01  3.9391e-06  0:01:13 1278
   723  3.8299e-06  3.9781e-04  2.2120e-06  1.5957e-01  3.8364e-06  0:00:59 1277
   724  3.7228e-06  3.9585e-04  2.1889e-06  1.6023e-01  3.7199e-06  0:00:47 1276
   725  3.6444e-06  3.9406e-04  2.1735e-06  1.6087e-01  3.6342e-06  0:00:38 1275
   726  3.5314e-06  3.9237e-04  2.1890e-06  1.6147e-01  3.5161e-06  0:04:45 1274

  iter  continuity  x-velocity  y-velocity  z-velocity      energy     time/iter
   727  3.3817e-06  3.9074e-04  2.1889e-06  1.6204e-01  3.3630e-06  0:03:48 1273
   728  3.1833e-06  3.8912e-04  2.1729e-06  1.6259e-01  3.1599e-06  0:03:02 1272
   729  2.9681e-06  3.8750e-04  2.1530e-06  1.6310e-01  2.9398e-06  0:02:25 1271
   730  2.7441e-06  3.8592e-04  2.1230e-06  1.6359e-01  2.7119e-06  0:01:56 1270
   731  2.5068e-06  3.8432e-04  2.0990e-06  1.6405e-01  2.4739e-06  0:01:33 1269
   732  2.2774e-06  3.8274e-04  2.0698e-06  1.6448e-01  2.2421e-06  0:01:14 1268
   733  2.0799e-06  3.8118e-04  2.0350e-06  1.6490e-01  2.0571e-06  0:00:59 1267
   734  1.9615e-06  3.7967e-04  1.9661e-06  1.6531e-01  1.9461e-06  0:05:01 1266
   735  1.8306e-06  3.7820e-04  1.9619e-06  1.6569e-01  1.8121e-06  0:04:00 1265
   736  1.7313e-06  3.7679e-04  1.9815e-06  1.6601e-01  1.7051e-06  0:03:12 1264
   737  1.6881e-06  3.7542e-04  1.9757e-06  1.6629e-01  1.6551e-06  0:02:34 1263

  iter  continuity  x-velocity  y-velocity  z-velocity      energy     time/iter
   738  1.7013e-06  3.7409e-04  1.9569e-06  1.6654e-01  1.6642e-06  0:02:03 1262
   739  1.7596e-06  3.7279e-04  1.9394e-06  1.6676e-01  1.7211e-06  0:01:38 1261
   740  1.8512e-06  3.7152e-04  1.9262e-06  1.6696e-01  1.8120e-06  0:01:18 1260
   741  1.9645e-06  3.7030e-04  1.9162e-06  1.6712e-01  1.9256e-06  0:01:03 1259
   742  2.0927e-06  3.6912e-04  1.9118e-06  1.6723e-01  2.0569e-06  0:00:50 1258
   743  2.2188e-06  3.6803e-04  1.9127e-06  1.6732e-01  2.1943e-06  0:00:40 1257
   744  2.3493e-06  3.6698e-04  1.9098e-06  1.6738e-01  2.3325e-06  0:04:43 1256
   745  2.4714e-06  3.6595e-04  1.9105e-06  1.6743e-01  2.4597e-06  0:03:46 1255
   746  2.5737e-06  3.6493e-04  1.9260e-06  1.6746e-01  2.5635e-06  0:03:01 1254
   747  2.6540e-06  3.6391e-04  1.9399e-06  1.6749e-01  2.6436e-06  0:02:25 1253
   748  2.7123e-06  3.6290e-04  1.9495e-06  1.6750e-01  2.7010e-06  0:01:56 1252

  iter  continuity  x-velocity  y-velocity  z-velocity      energy     time/iter
   749  2.7487e-06  3.6189e-04  1.9566e-06  1.6751e-01  2.7362e-06  0:01:32 1251
   750  2.7648e-06  3.6089e-04  1.9628e-06  1.6751e-01  2.7507e-06  0:01:14 1250
   751  2.8273e-06  3.5983e-04  1.9755e-06  1.6750e-01  2.8095e-06  0:00:59 1249
   752  2.8154e-06  3.5876e-04  1.9985e-06  1.6746e-01  2.7943e-06  0:00:47 1248
   753  2.7933e-06  3.5768e-04  2.0198e-06  1.6738e-01  2.7689e-06  0:00:38 1247
   754  2.7946e-06  3.5656e-04  2.0407e-06  1.6726e-01  2.7659e-06  0:00:30 1246
   755  3.1177e-06  3.5538e-04  2.1011e-06  1.6700e-01  3.0836e-06  0:04:33 1245
   756  3.6734e-06  3.5437e-04  2.2709e-06  1.6681e-01  3.6361e-06  0:03:38 1244
   757  3.2072e-06  3.5316e-04  2.5511e-06  1.6666e-01  3.1588e-06  0:02:55 1243
   758  2.8173e-06  3.5173e-04  2.5767e-06  1.6653e-01  2.7578e-06  0:02:19 1242
   759  2.6373e-06  3.5038e-04  2.4299e-06  1.6642e-01  2.5901e-06  0:01:52 1241

  iter  continuity  x-velocity  y-velocity  z-velocity      energy     time/iter
   760  2.6300e-06  3.4907e-04  2.3013e-06  1.6630e-01  2.5920e-06  0:01:29 1240
   761  2.1982e-06  3.4792e-04  1.9340e-06  1.6618e-01  2.1521e-06  0:01:11 1239
   762  1.8030e-06  3.4697e-04  1.8769e-06  1.6603e-01  1.7469e-06  0:00:57 1238
   763  1.7644e-06  3.4590e-04  1.7663e-06  1.6587e-01  1.7140e-06  0:00:46 1237
   764  1.6620e-06  3.4467e-04  1.7356e-06  1.6568e-01  1.6057e-06  0:00:36 1236
   765  1.5082e-06  3.4336e-04  1.7651e-06  1.6549e-01  1.4364e-06  0:04:36 1235
   766  1.4323e-06  3.4205e-04  1.7481e-06  1.6526e-01  1.3452e-06  0:03:41 1234
   767  1.4103e-06  3.4079e-04  1.6986e-06  1.6494e-01  1.3166e-06  0:02:56 1233
   768  1.4222e-06  3.3954e-04  1.6515e-06  1.6454e-01  1.3281e-06  0:02:21 1232
   769  1.4506e-06  3.3828e-04  1.6154e-06  1.6407e-01  1.3592e-06  0:01:53 1231
   770  1.5035e-06  3.3702e-04  1.5721e-06  1.6354e-01  1.4194e-06  0:01:30 1230

  iter  continuity  x-velocity  y-velocity  z-velocity      energy     time/iter
   771  1.5758e-06  3.3577e-04  1.5412e-06  1.6295e-01  1.5010e-06  0:01:12 1229
   772  1.6573e-06  3.3446e-04  1.5562e-06  1.6215e-01  1.5896e-06  0:00:58 1228
   773  1.7301e-06  3.3316e-04  1.5666e-06  1.6129e-01  1.6650e-06  0:00:46 1227
   774  1.7912e-06  3.3187e-04  1.5640e-06  1.6041e-01  1.7267e-06  0:04:42 1226
   775  1.8437e-06  3.3058e-04  1.5566e-06  1.5952e-01  1.7792e-06  0:03:45 1225
   776  1.8888e-06  3.2930e-04  1.5487e-06  1.5863e-01  1.8245e-06  0:03:00 1224
   777  1.9268e-06  3.2801e-04  1.5412e-06  1.5774e-01  1.8627e-06  0:02:24 1223
   778  1.9544e-06  3.2673e-04  1.5314e-06  1.5688e-01  1.8905e-06  0:01:55 1222
   779  1.9587e-06  3.2547e-04  1.5155e-06  1.5605e-01  1.8974e-06  0:01:32 1221
   780  1.9546e-06  3.2420e-04  1.5096e-06  1.5522e-01  1.8958e-06  0:01:14 1220
   781  2.0233e-06  3.2314e-04  1.5520e-06  1.5441e-01  1.9610e-06  0:00:59 1219

  iter  continuity  x-velocity  y-velocity  z-velocity      energy     time/iter
   782  2.1572e-06  3.2210e-04  1.5616e-06  1.5364e-01  2.1071e-06  0:00:47 1218
   783  2.1833e-06  3.2103e-04  1.4470e-06  1.5290e-01  2.1468e-06  0:00:38 1217
   784  2.1219e-06  3.1993e-04  1.3940e-06  1.5217e-01  2.0965e-06  0:04:33 1216
   785  2.0394e-06  3.1885e-04  1.3896e-06  1.5143e-01  2.0188e-06  0:03:38 1215
   786  2.0117e-06  3.1793e-04  1.4414e-06  1.5071e-01  1.9903e-06  0:02:55 1214
   787  1.8738e-06  3.1689e-04  1.4449e-06  1.4996e-01  1.8554e-06  0:02:20 1213
   788  1.7612e-06  3.1588e-04  1.4311e-06  1.4923e-01  1.7454e-06  0:01:52 1212
   789  1.6522e-06  3.1489e-04  1.4227e-06  1.4862e-01  1.6373e-06  0:01:29 1211
   790  1.5808e-06  3.1394e-04  1.4245e-06  1.4810e-01  1.5652e-06  0:01:11 1210
   791  1.7206e-06  3.1308e-04  1.4449e-06  1.4766e-01  1.7041e-06  0:00:57 1209
   792  2.2920e-06  3.1246e-04  1.5340e-06  1.4730e-01  2.2768e-06  0:00:46 1208

  iter  continuity  x-velocity  y-velocity  z-velocity      energy     time/iter
   793  2.8111e-06  3.1202e-04  1.7635e-06  1.4697e-01  2.7985e-06  0:00:36 1207
   794  3.1706e-06  3.1176e-04  2.0248e-06  1.4665e-01  3.1610e-06  0:04:30 1206
   795  3.4581e-06  3.1171e-04  2.2425e-06  1.4636e-01  3.4512e-06  0:03:36 1205
   796  3.4456e-06  3.1167e-04  2.4159e-06  1.4609e-01  3.4422e-06  0:02:53 1204
   797  2.8564e-06  3.1119e-04  2.4541e-06  1.4584e-01  2.8592e-06  0:02:18 1203
   798  2.2426e-06  3.1049e-04  2.2322e-06  1.4558e-01  2.2541e-06  0:01:50 1202
   799  1.8387e-06  3.0976e-04  1.9363e-06  1.4526e-01  1.8581e-06  0:01:28 1201
   800  1.6684e-06  3.0905e-04  1.7074e-06  1.4492e-01  1.6911e-06  0:01:11 1200
   801  1.5928e-06  3.0835e-04  1.5774e-06  1.4455e-01  1.6210e-06  0:00:56 1199
   802  1.7229e-06  3.0773e-04  1.5297e-06  1.4419e-01  1.7636e-06  0:00:45 1198
   803  1.7479e-06  3.0687e-04  1.4960e-06  1.4384e-01  1.7939e-06  0:00:36 1197

  iter  continuity  x-velocity  y-velocity  z-velocity      energy     time/iter
   804  1.7290e-06  3.0594e-04  1.4751e-06  1.4343e-01  1.7754e-06  0:04:28 1196
   805  1.7191e-06  3.0502e-04  1.4637e-06  1.4300e-01  1.7638e-06  0:03:34 1195
   806  1.7221e-06  3.0412e-04  1.4526e-06  1.4257e-01  1.7646e-06  0:02:51 1194
   807  1.7298e-06  3.0324e-04  1.4414e-06  1.4212e-01  1.7704e-06  0:02:17 1193
   808  1.7535e-06  3.0239e-04  1.4315e-06  1.4171e-01  1.7922e-06  0:01:49 1192
   809  1.7784e-06  3.0156e-04  1.4261e-06  1.4126e-01  1.8150e-06  0:01:27 1191
[...]
  1793  2.4387e-07  2.4771e-05  1.7422e-07  1.6515e-01  2.3966e-07  0:00:07  207

  iter  continuity  x-velocity  y-velocity  z-velocity      energy     time/iter
  1794  2.4294e-07  2.4687e-05  1.7340e-07  1.6403e-01  2.3872e-07  0:00:06  206
  1795  2.4218e-07  2.4605e-05  1.7301e-07  1.6271e-01  2.3797e-07  0:00:05  205
  1796  2.4153e-07  2.4524e-05  1.7276e-07  1.6132e-01  2.3733e-07  0:00:04  204
  1797  2.4103e-07  2.4442e-05  1.7266e-07  1.6001e-01  2.3684e-07  0:00:44  203
  1798  2.4042e-07  2.4361e-05  1.7269e-07  1.5883e-01  2.3626e-07  0:00:35  202
  1799  2.3978e-07  2.4279e-05  1.7271e-07  1.5773e-01  2.3567e-07  0:00:28  201
  1800  2.3928e-07  2.4200e-05  1.7268e-07  1.5666e-01  2.3523e-07  0:00:22  200
  1801  2.3883e-07  2.4121e-05  1.7278e-07  1.5562e-01  2.3483e-07  0:00:18  199
  1802  2.3843e-07  2.4043e-05  1.7289e-07  1.5463e-01  2.3446e-07  0:00:14  198
  1803  2.3808e-07  2.3965e-05  1.7301e-07  1.5364e-01  2.3415e-07  0:00:11  197
  1804  2.3780e-07  2.3888e-05  1.7318e-07  1.5261e-01  2.3391e-07  0:00:09  196

  iter  continuity  x-velocity  y-velocity  z-velocity      energy     time/iter
  1805  2.3761e-07  2.3811e-05  1.7339e-07  1.5158e-01  2.3374e-07  0:00:07  195
  1806  2.3743e-07  2.3734e-05  1.7366e-07  1.5049e-01  2.3362e-07  0:00:06  194
  1807  2.3734e-07  2.3658e-05  1.7397e-07  1.4940e-01  2.3359e-07  0:00:04  193
  1808  2.3737e-07  2.3583e-05  1.7434e-07  1.4831e-01  2.3369e-07  0:00:04  192
  1809  2.3752e-07  2.3509e-05  1.7477e-07  1.4719e-01  2.3392e-07  0:00:41  191
  1810  2.3778e-07  2.3435e-05  1.7525e-07  1.4602e-01  2.3427e-07  0:00:33  190
  1811  2.3816e-07  2.3361e-05  1.7578e-07  1.4480e-01  2.3475e-07  0:00:26  189
  1812  2.3868e-07  2.3289e-05  1.7637e-07  1.4365e-01  2.3537e-07  0:00:21  188
  1813  2.3934e-07  2.3216e-05  1.7708e-07  1.4256e-01  2.3616e-07  0:00:16  187
  1814  2.4041e-07  2.3145e-05  1.7802e-07  1.4156e-01  2.3739e-07  0:00:13  186
  1815  2.4195e-07  2.3075e-05  1.7909e-07  1.4065e-01  2.3911e-07  0:00:10  185

  iter  continuity  x-velocity  y-velocity  z-velocity      energy     time/iter
  1816  2.4419e-07  2.3006e-05  1.8030e-07  1.3983e-01  2.4156e-07  0:00:08  184
  1817  2.4745e-07  2.2939e-05  1.8181e-07  1.3909e-01  2.4506e-07  0:00:07  183
  1818  2.5174e-07  2.2876e-05  1.8385e-07  1.3850e-01  2.4959e-07  0:00:05  182
  1819  2.5782e-07  2.2817e-05  1.8662e-07  1.3810e-01  2.5593e-07  0:00:04  181
  1820  2.6658e-07  2.2764e-05  1.9022e-07  1.3793e-01  2.6500e-07  0:00:39  180
  1821  2.7893e-07  2.2721e-05  1.9518e-07  1.3818e-01  2.7768e-07  0:00:31  179
  1822  2.9468e-07  2.2693e-05  2.0158e-07  1.3910e-01  2.9376e-07  0:00:25  178
  1823  3.1029e-07  2.2678e-05  2.0966e-07  1.4102e-01  3.0964e-07  0:00:20  177
  1824  3.2659e-07  2.2677e-05  2.2088e-07  1.4414e-01  3.2608e-07  0:00:16  176
  1825  3.4237e-07  2.2692e-05  2.3034e-07  1.4862e-01  3.4198e-07  0:00:13  175
  1826  3.5787e-07  2.2729e-05  2.3910e-07  1.5442e-01  3.5762e-07  0:00:10  174

  iter  continuity  x-velocity  y-velocity  z-velocity      energy     time/iter
  1827  3.7274e-07  2.2789e-05  2.5143e-07  1.6154e-01  3.7261e-07  0:00:08  173
  1828  3.9092e-07  2.2871e-05  2.6994e-07  1.6989e-01  3.9084e-07  0:00:06  172
  1829  4.1687e-07  2.2992e-05  2.7644e-07  1.7929e-01  4.1691e-07  0:00:05  171
  1830  4.4053e-07  2.3131e-05  2.8526e-07  1.8984e-01  4.4078e-07  0:00:04  170
  1831  4.4790e-07  2.3252e-05  2.9657e-07  2.0114e-01  4.4843e-07  0:00:03  169
  1832  4.3608e-07  2.3363e-05  2.9685e-07  2.1198e-01  4.3685e-07  0:00:36  168
  1833  4.0272e-07  2.3425e-05  2.9498e-07  2.2142e-01  4.0337e-07  0:00:29  167
  1834  3.5923e-07  2.3404e-05  2.8408e-07  2.2756e-01  3.5933e-07  0:00:23  166
  1835  3.2476e-07  2.3334e-05  2.5684e-07  2.2916e-01  3.2404e-07  0:00:18  165
  1836  3.0634e-07  2.3247e-05  2.3051e-07  2.2595e-01  3.0488e-07  0:00:14  164
  1837  2.8953e-07  2.3142e-05  2.1281e-07  2.1868e-01  2.8748e-07  0:00:11  163

  iter  continuity  x-velocity  y-velocity  z-velocity      energy     time/iter
  1838  2.8993e-07  2.3049e-05  2.0505e-07  2.0831e-01  2.8764e-07  0:00:09  162
  1839  2.9705e-07  2.2965e-05  2.0395e-07  1.9609e-01  2.9476e-07  0:00:07  161
  1840  3.0543e-07  2.2889e-05  2.0683e-07  1.8377e-01  3.0327e-07  0:00:06  160
  1841  3.1376e-07  2.2816e-05  2.0995e-07  1.7262e-01  3.1187e-07  0:00:05  159
  1842  3.2267e-07  2.2748e-05  2.1351e-07  1.6289e-01  3.2115e-07  0:00:04  158
  1843  3.3427e-07  2.2690e-05  2.1789e-07  1.5496e-01  3.3316e-07  0:00:03  157
  1844  3.5113e-07  2.2646e-05  2.2412e-07  1.4868e-01  3.5051e-07  0:00:34  156
  1845  3.7511e-07  2.2626e-05  2.3284e-07  1.4384e-01  3.7503e-07  0:00:27  155
  1846  4.0603e-07  2.2638e-05  2.4733e-07  1.4038e-01  4.0645e-07  0:00:21  154
  1847  4.3409e-07  2.2676e-05  2.6888e-07  1.3869e-01  4.3491e-07  0:00:17  153
  1848  4.5922e-07  2.2749e-05  2.9533e-07  1.3930e-01  4.6039e-07  0:00:13  152

  iter  continuity  x-velocity  y-velocity  z-velocity      energy     time/iter
  1849  4.8146e-07  2.2861e-05  3.0579e-07  1.4263e-01  4.8299e-07  0:00:11  151
  1850  5.1875e-07  2.2999e-05  3.5276e-07  1.4885e-01  5.2063e-07  0:00:08  150
  1851  5.7228e-07  2.3277e-05  3.4477e-07  1.5810e-01  5.7464e-07  0:00:07  149
  1852  6.1375e-07  2.3568e-05  3.6136e-07  1.6944e-01  6.1619e-07  0:00:05  148
  1853  5.5398e-07  2.3673e-05  3.4822e-07  1.8087e-01  5.5630e-07  0:00:04  147
  1854  5.0211e-07  2.3699e-05  3.4676e-07  1.8925e-01  5.0408e-07  0:00:03  146
  1855  4.7527e-07  2.3710e-05  3.5746e-07  1.9286e-01  4.7684e-07  0:00:03  145
  1856  5.2416e-07  2.3762e-05  3.3258e-07  1.9196e-01  5.2541e-07  0:00:31  144
  1857  5.4075e-07  2.3853e-05  3.5103e-07  1.8785e-01  5.4185e-07  0:00:25  143
  1858  4.9317e-07  2.3900e-05  3.0997e-07  1.8276e-01  4.9394e-07  0:00:20  142
  1859  4.2075e-07  2.3835e-05  2.9875e-07  1.7698e-01  4.2058e-07  0:00:16  141

  iter  continuity  x-velocity  y-velocity  z-velocity      energy     time/iter
  1860  3.7633e-07  2.3746e-05  2.7518e-07  1.6942e-01  3.7499e-07  0:00:12  140
  1861  3.6540e-07  2.3657e-05  2.5389e-07  1.6000e-01  3.6313e-07  0:00:10  139
  1862  3.6617e-07  2.3575e-05  2.4215e-07  1.4964e-01  3.6333e-07  0:00:08  138
  1863  3.6555e-07  2.3479e-05  2.3825e-07  1.3946e-01  3.6234e-07  0:00:06  137
  1864  3.6093e-07  2.3348e-05  2.3646e-07  1.3019e-01  3.5745e-07  0:00:05  136
  1865  3.5548e-07  2.3223e-05  2.3417e-07  1.2231e-01  3.5182e-07  0:00:04  135
  1866  3.5100e-07  2.3101e-05  2.3685e-07  1.1596e-01  3.4726e-07  0:00:03  134
  1867  3.4532e-07  2.2978e-05  2.3326e-07  1.1091e-01  3.4151e-07  0:00:02  133
  1868  3.4053e-07  2.2855e-05  2.2695e-07  1.0696e-01  3.3668e-07  0:00:28  132
  1869  3.3609e-07  2.2734e-05  2.2420e-07  1.0407e-01  3.3221e-07  0:00:23  131
  1870  3.3269e-07  2.2621e-05  2.2432e-07  1.0199e-01  3.2886e-07  0:00:18  130

  iter  continuity  x-velocity  y-velocity  z-velocity      energy     time/iter
  1871  3.2977e-07  2.2509e-05  2.2422e-07  1.0073e-01  3.2595e-07  0:00:14  129
  1872  3.2787e-07  2.2403e-05  2.2227e-07  1.0006e-01  3.2401e-07  0:00:11  128
  1873  3.2742e-07  2.2303e-05  2.2133e-07  9.9496e-02  3.2353e-07  0:00:09  127
  1874  3.2687e-07  2.2203e-05  2.2093e-07  9.8990e-02  3.2296e-07  0:00:07  126
  1875  3.2663e-07  2.2105e-05  2.2181e-07  9.8732e-02  3.2272e-07  0:00:06  125
  1876  3.2686e-07  2.2011e-05  2.2273e-07  9.8710e-02  3.2294e-07  0:00:04  124
  1877  3.2501e-07  2.1893e-05  2.2492e-07  9.8749e-02  3.2104e-07  0:00:04  123
  1878  3.2312e-07  2.1752e-05  2.2239e-07  9.8579e-02  3.1911e-07  0:00:27  122
  1879  3.2336e-07  2.1624e-05  2.1970e-07  9.7855e-02  3.1937e-07  0:00:22  121
  1880  3.2341e-07  2.1499e-05  2.1961e-07  9.6746e-02  3.1947e-07  0:00:17  120
  1881  3.2252e-07  2.1334e-05  2.2122e-07  9.5425e-02  3.1859e-07  0:00:14  119

  iter  continuity  x-velocity  y-velocity  z-velocity      energy     time/iter
  1882  3.2279e-07  2.1181e-05  2.2175e-07  9.4076e-02  3.1890e-07  0:00:11  118
  1883  3.2245e-07  2.1037e-05  2.1963e-07  9.2836e-02  3.1860e-07  0:00:09  117
  1884  3.2144e-07  2.0899e-05  2.1741e-07  9.1646e-02  3.1775e-07  0:00:07  116
  1885  3.2013e-07  2.0766e-05  2.1605e-07  9.0306e-02  3.1655e-07  0:00:05  115
  1886  3.1922e-07  2.0633e-05  2.1573e-07  8.9000e-02  3.1571e-07  0:00:04  114
  1887  3.1851e-07  2.0503e-05  2.1578e-07  8.7802e-02  3.1505e-07  0:00:03  113
  1888  3.1736e-07  2.0370e-05  2.1738e-07  8.6745e-02  3.1392e-07  0:00:03  112
  1889  3.1875e-07  2.0244e-05  2.1476e-07  8.5820e-02  3.1531e-07  0:00:02  111
  1890  3.2020e-07  2.0117e-05  2.1344e-07  8.5034e-02  3.1684e-07  0:00:24  110
  1891  3.1668e-07  1.9983e-05  2.1264e-07  8.4358e-02  3.1345e-07  0:00:19  109
  1892  3.2386e-07  1.9851e-05  2.2229e-07  8.3731e-02  3.2084e-07  0:00:15  108

  iter  continuity  x-velocity  y-velocity  z-velocity      energy     time/iter
  1893  3.1642e-07  1.9732e-05  2.2114e-07  8.3116e-02  3.1329e-07  0:00:12  107
  1894  3.2475e-07  1.9626e-05  2.1832e-07  8.2523e-02  3.2162e-07  0:00:09  106
  1895  3.2197e-07  1.9506e-05  2.1372e-07  8.1858e-02  3.1890e-07  0:00:07  105
  1896  3.1488e-07  1.9374e-05  2.1210e-07  8.1176e-02  3.1196e-07  0:00:06  104
  1897  3.2598e-07  1.9249e-05  2.2444e-07  8.0444e-02  3.2330e-07  0:00:05  103
  1898  3.1257e-07  1.9143e-05  2.1366e-07  7.9754e-02  3.0970e-07  0:00:04  102
  1899  3.1126e-07  1.9043e-05  2.0888e-07  7.9172e-02  3.0842e-07  0:00:03  101
  1900  3.0784e-07  1.8930e-05  2.0558e-07  7.8652e-02  3.0515e-07  0:00:02  100
  1901  3.0606e-07  1.8818e-05  2.0499e-07  7.8139e-02  3.0352e-07  0:00:02   99
  1902  3.0521e-07  1.8711e-05  2.0457e-07  7.7620e-02  3.0274e-07  0:00:21   98
  1903  3.0380e-07  1.8607e-05  2.0349e-07  7.7110e-02  3.0136e-07  0:00:17   97

  iter  continuity  x-velocity  y-velocity  z-velocity      energy     time/iter
  1904  3.0264e-07  1.8505e-05  2.0267e-07  7.6612e-02  3.0023e-07  0:00:13   96
  1905  3.0176e-07  1.8403e-05  2.0213e-07  7.6105e-02  2.9939e-07  0:00:10   95
  1906  3.0036e-07  1.8303e-05  2.0120e-07  7.5516e-02  2.9805e-07  0:00:08   94
  1907  2.9849e-07  1.8205e-05  2.0004e-07  7.4888e-02  2.9626e-07  0:00:07   93
  1908  2.9635e-07  1.8107e-05  1.9876e-07  7.4246e-02  2.9419e-07  0:00:05   92
  1909  2.9424e-07  1.8011e-05  1.9742e-07  7.3608e-02  2.9213e-07  0:00:04   91
  1910  2.9232e-07  1.7915e-05  1.9627e-07  7.2989e-02  2.9023e-07  0:00:03   90
  1911  2.9050e-07  1.7817e-05  1.9556e-07  7.2383e-02  2.8843e-07  0:00:03   89
  1912  2.8883e-07  1.7711e-05  1.9484e-07  7.1746e-02  2.8677e-07  0:00:02   88
  1913  2.8746e-07  1.7608e-05  1.9902e-07  7.1143e-02  2.8542e-07  0:00:02   87
  1914  2.8738e-07  1.7514e-05  2.0217e-07  7.0591e-02  2.8536e-07  0:00:18   86

  iter  continuity  x-velocity  y-velocity  z-velocity      energy     time/iter
  1915  2.9174e-07  1.7418e-05  2.2075e-07  7.0096e-02  2.8974e-07  0:00:15   85
  1916  2.9106e-07  1.7289e-05  2.1822e-07  6.9709e-02  2.8910e-07  0:00:12   84
  1917  2.8644e-07  1.7198e-05  2.0278e-07  6.9285e-02  2.8438e-07  0:00:09   83
  1918  2.7871e-07  1.7112e-05  1.9294e-07  6.8847e-02  2.7662e-07  0:00:07   82
  1919  2.8040e-07  1.7035e-05  2.1015e-07  6.8377e-02  2.7838e-07  0:00:06   81
  1920  2.8499e-07  1.6921e-05  2.1497e-07  6.7870e-02  2.8312e-07  0:00:05   80
  1921  2.8702e-07  1.6808e-05  2.4273e-07  6.7324e-02  2.8522e-07  0:00:04   79
  1922  2.9626e-07  1.6772e-05  2.6870e-07  6.6897e-02  2.9446e-07  0:00:03   78
  1923  2.7961e-07  1.6628e-05  2.1342e-07  6.6367e-02  2.7784e-07  0:00:02   77
  1924  2.6903e-07  1.6546e-05  1.8711e-07  6.5725e-02  2.6710e-07  0:00:02   76
  1925  2.6630e-07  1.6452e-05  1.8582e-07  6.5017e-02  2.6434e-07  0:00:16   75

  iter  continuity  x-velocity  y-velocity  z-velocity      energy     time/iter
  1926  2.6410e-07  1.6365e-05  1.8163e-07  6.4255e-02  2.6211e-07  0:00:13   74
  1927  2.5891e-07  1.6278e-05  1.8115e-07  6.3525e-02  2.5689e-07  0:00:10   73
  1928  2.5808e-07  1.6186e-05  1.8154e-07  6.2840e-02  2.5607e-07  0:00:08   72
  1929  2.5714e-07  1.6095e-05  1.9785e-07  6.2161e-02  2.5510e-07  0:00:06   71
  1930  2.6097e-07  1.6023e-05  1.9741e-07  6.1446e-02  2.5888e-07  0:00:05   70
  1931  2.5869e-07  1.5942e-05  1.9570e-07  6.0842e-02  2.5660e-07  0:00:04   69
  1932  2.5698e-07  1.5845e-05  2.0076e-07  6.0300e-02  2.5494e-07  0:00:03   68
  1933  2.5651e-07  1.5754e-05  1.8211e-07  5.9681e-02  2.5441e-07  0:00:02   67
  1934  2.4513e-07  1.5679e-05  1.7425e-07  5.9064e-02  2.4283e-07  0:00:02   66
  1935  2.4282e-07  1.5601e-05  1.6966e-07  5.8518e-02  2.4050e-07  0:00:02   65
  1936  2.4119e-07  1.5526e-05  1.6851e-07  5.8038e-02  2.3884e-07  0:00:01   64

  iter  continuity  x-velocity  y-velocity  z-velocity      energy     time/iter
  1937  2.3981e-07  1.5449e-05  1.6830e-07  5.7656e-02  2.3745e-07  0:00:14   63
  1938  2.3885e-07  1.5373e-05  1.7035e-07  5.7361e-02  2.3646e-07  0:00:11   62
  1939  2.4042e-07  1.5301e-05  1.7340e-07  5.7152e-02  2.3805e-07  0:00:08   61
  1940  2.4000e-07  1.5226e-05  1.6997e-07  5.7058e-02  2.3762e-07  0:00:07   60
  1941  2.3528e-07  1.5144e-05  1.6445e-07  5.6953e-02  2.3287e-07  0:00:05   59
  1942  2.3029e-07  1.5059e-05  1.6296e-07  5.6836e-02  2.2787e-07  0:00:04   58
  1943  2.2772e-07  1.4979e-05  1.6364e-07  5.6645e-02  2.2530e-07  0:00:03   57
  1944  2.2857e-07  1.4911e-05  1.6652e-07  5.6396e-02  2.2615e-07  0:00:03   56
  1945  2.2884e-07  1.4843e-05  1.6616e-07  5.6180e-02  2.2640e-07  0:00:02   55
  1946  2.2691e-07  1.4771e-05  1.6193e-07  5.6064e-02  2.2445e-07  0:00:02   54
  1947  2.2195e-07  1.4692e-05  1.5865e-07  5.6043e-02  2.1946e-07  0:00:01   53

  iter  continuity  x-velocity  y-velocity  z-velocity      energy     time/iter
  1948  2.1961e-07  1.4615e-05  1.5826e-07  5.6005e-02  2.1712e-07  0:00:01   52
  1949  2.1857e-07  1.4544e-05  1.5736e-07  5.5921e-02  2.1608e-07  0:00:11   51
  1950  2.1800e-07  1.4479e-05  1.5694e-07  5.5733e-02  2.1548e-07  0:00:09   50
  1951  2.1814e-07  1.4414e-05  1.5763e-07  5.5441e-02  2.1561e-07  0:00:07   49
  1952  2.1739e-07  1.4345e-05  1.5741e-07  5.5118e-02  2.1485e-07  0:00:05   48
  1953  2.1638e-07  1.4275e-05  1.5721e-07  5.4736e-02  2.1384e-07  0:00:04   47
  1954  2.1593e-07  1.4207e-05  1.5717e-07  5.4316e-02  2.1339e-07  0:00:03   46
  1955  2.1587e-07  1.4143e-05  1.5728e-07  5.3873e-02  2.1331e-07  0:00:03   45
  1956  2.1598e-07  1.4079e-05  1.5967e-07  5.3450e-02  2.1342e-07  0:00:02   44
  1957  2.1906e-07  1.4019e-05  1.6461e-07  5.3034e-02  2.1652e-07  0:00:02   43
  1958  2.2026e-07  1.3953e-05  1.6374e-07  5.2523e-02  2.1774e-07  0:00:01   42

  iter  continuity  x-velocity  y-velocity  z-velocity      energy     time/iter
  1959  2.1835e-07  1.3884e-05  1.5884e-07  5.1965e-02  2.1585e-07  0:00:01   41
  1960  2.1518e-07  1.3815e-05  1.5692e-07  5.1416e-02  2.1271e-07  0:00:01   40
  1961  2.1543e-07  1.3752e-05  1.5730e-07  5.0960e-02  2.1300e-07  0:00:08   39
  1962  2.1618e-07  1.3691e-05  1.5829e-07  5.0576e-02  2.1377e-07  0:00:07   38
  1963  2.1690e-07  1.3629e-05  1.5800e-07  5.0181e-02  2.1450e-07  0:00:05   37
  1964  2.1819e-07  1.3568e-05  1.5869e-07  4.9718e-02  2.1582e-07  0:00:04   36
  1965  2.1872e-07  1.3507e-05  1.5861e-07  4.9262e-02  2.1637e-07  0:00:03   35
  1966  2.1931e-07  1.3446e-05  1.5894e-07  4.8880e-02  2.1698e-07  0:00:02   34
  1967  2.2035e-07  1.3386e-05  1.5937e-07  4.8589e-02  2.1805e-07  0:00:02   33
  1968  2.2176e-07  1.3328e-05  1.6009e-07  4.8353e-02  2.1948e-07  0:00:01   32
  1969  2.2346e-07  1.3271e-05  1.6111e-07  4.8161e-02  2.2121e-07  0:00:01   31

  iter  continuity  x-velocity  y-velocity  z-velocity      energy     time/iter
  1970  2.2433e-07  1.3212e-05  1.6179e-07  4.7970e-02  2.2210e-07  0:00:07   30
  1971  2.2489e-07  1.3152e-05  1.6229e-07  4.7852e-02  2.2266e-07  0:00:05   29
  1972  2.2587e-07  1.3095e-05  1.6279e-07  4.7705e-02  2.2366e-07  0:00:04   28
  1973  2.2734e-07  1.3040e-05  1.6339e-07  4.7611e-02  2.2516e-07  0:00:03   27
  1974  2.2891e-07  1.2986e-05  1.6417e-07  4.7547e-02  2.2675e-07  0:00:02   26
  1975  2.3037e-07  1.2931e-05  1.6504e-07  4.7463e-02  2.2822e-07  0:00:02   25
  1976  2.3167e-07  1.2875e-05  1.6589e-07  4.7326e-02  2.2955e-07  0:00:01   24
  1977  2.3295e-07  1.2819e-05  1.6667e-07  4.7115e-02  2.3084e-07  0:00:01   23
  1978  2.3430e-07  1.2765e-05  1.6748e-07  4.6853e-02  2.3221e-07  0:00:01   22
  1979  2.3575e-07  1.2711e-05  1.6838e-07  4.6520e-02  2.3368e-07  0:00:01   21
  1980  2.3728e-07  1.2659e-05  1.6934e-07  4.6150e-02  2.3522e-07  0:00:00   20

  iter  continuity  x-velocity  y-velocity  z-velocity      energy     time/iter
  1981  2.3884e-07  1.2606e-05  1.7034e-07  4.5752e-02  2.3679e-07  0:00:00   19
  1982  2.4033e-07  1.2554e-05  1.7127e-07  4.5320e-02  2.3829e-07  0:00:04   18
  1983  2.4179e-07  1.2501e-05  1.7210e-07  4.4844e-02  2.3976e-07  0:00:03   17
  1984  2.4326e-07  1.2449e-05  1.7288e-07  4.4364e-02  2.4124e-07  0:00:02   16
  1985  2.4464e-07  1.2396e-05  1.7362e-07  4.3966e-02  2.4263e-07  0:00:02   15
  1986  2.4594e-07  1.2343e-05  1.7436e-07  4.3626e-02  2.4394e-07  0:00:01   14
  1987  2.4727e-07  1.2291e-05  1.7514e-07  4.3374e-02  2.4529e-07  0:00:01   13
  1988  2.4859e-07  1.2239e-05  1.7592e-07  4.3184e-02  2.4663e-07  0:00:01   12
  1989  2.4989e-07  1.2187e-05  1.7669e-07  4.3022e-02  2.4795e-07  0:00:00   11
  1990  2.5116e-07  1.2136e-05  1.7742e-07  4.2878e-02  2.4924e-07  0:00:00   10
  1991  2.5242e-07  1.2085e-05  1.7812e-07  4.2756e-02  2.5051e-07  0:00:00    9

  iter  continuity  x-velocity  y-velocity  z-velocity      energy     time/iter
  1992  2.5364e-07  1.2034e-05  1.7880e-07  4.2644e-02  2.5175e-07  0:00:00    8
  1993  2.5484e-07  1.1984e-05  1.7946e-07  4.2512e-02  2.5296e-07  0:00:00    7
  1994  2.5601e-07  1.1934e-05  1.8010e-07  4.2314e-02  2.5413e-07  0:00:01    6
  1995  2.5714e-07  1.1885e-05  1.8093e-07  4.2034e-02  2.5526e-07  0:00:01    5
  1996  2.5825e-07  1.1836e-05  1.8134e-07  4.1706e-02  2.5637e-07  0:00:01    4
  1997  2.5932e-07  1.1787e-05  1.8180e-07  4.1367e-02  2.5744e-07  0:00:00    3
  1998  2.6035e-07  1.1738e-05  1.8225e-07  4.1009e-02  2.5846e-07  0:00:00    2
  1999  2.6133e-07  1.1690e-05  1.8266e-07  4.0618e-02  2.5944e-07  0:00:00    1
  2000  2.6225e-07  1.1642e-05  1.8302e-07  4.0204e-02  2.6036e-07  0:00:00    0

> 
adjoint/                parallel/               server/
define/                 parametric-study/       solve/
display/                plot/                   surface/
exit                    preferences/            turbo-workflow/
file/                   print-license-usage     views/
mesh/                   report/

> /file/write-case-data project1
Fast-loading "C:\PROGRA~1\ANSYSI~1\v231\fluent\fluent23.1.0\\addons\afd\lib\hdfio.bin"
Done.

Writing to Engs-30669:"C:\Users\kebl7595\Desktop\CFD\Runs\Actual Data\0 degree larger domain\project1.cas.h5" in NODE0 mode and compression level 1 ...
       15006 cells,     1 zone  ...
       50443 faces,     8 zones ...
       20572 nodes,     1 zone  ...
  Done.
Done.

Writing to Engs-30669:"C:\Users\kebl7595\Desktop\CFD\Runs\Actual Data\0 degree larger domain\project1.dat.h5" in NODE0 mode and compression level 1 ...
  Writing results.
Done.

> /file/export/ascii "./surface.dat" wing te () no pressure mach-number quit no

Writing "./surface.dat"...

Writing information to ascii file ...
Done.


> 
adjoint/                parallel/               server/
define/                 parametric-study/       solve/
display/                plot/                   surface/
exit                    preferences/            turbo-workflow/
file/                   print-license-usage     views/
mesh/                   report/

> /exit

Posting ANSYS Product Improvement Program performance data 
Done.
Auto-Transcript Stop Time:  13:41:43, 20 May 2024 GMT Daylight Time 
Total Transcript Time: 3 Minute 10 Second.
