Auto-Transcript Start Time:  10:09:14, 22 May 2024 GMT Daylight Time 
Current Directory: "C:\Users\kebl7595\Desktop\CFD\Runs\Flap\15 degrees"

              Welcome to ANSYS Fluent 2023 R1

              Copyright 1987-2023 ANSYS, Inc. All Rights Reserved.
              Unauthorized use, distribution or duplication is prohibited.
              This product is subject to U.S. laws governing export and re-export.
              For full Legal Notice, see documentation.

Build Time: Nov 28 2022 09:52:02 EST  Build Id: 10208  
 
Connected License Server List:	1055@ansyslic.eng.ox.ac.uk

*********************************************
Info: Your license enables 4-way parallel execution.
For faster simulations, please start the application with the appropriate parallel options.
*********************************************


     --------------------------------------------------------------
     This is an academic version of ANSYS FLUENT. Usage of this product
     license is limited to the terms and conditions specified in your ANSYS
     license form, additional terms section.
     --------------------------------------------------------------
Host spawning Node 0 on machine "Engs-30669" (win64).

------------------------------------------------------------------------------------
ID    Hostname    Core  O.S.         PID    Vendor                                 
------------------------------------------------------------------------------------
n0    Engs-30669  1/32  Windows-x64  19432  13th Gen Intel(R) Core(TM) i9-13900    
host  Engs-30669        Windows-x64  38920  13th Gen Intel(R) Core(TM) i9-13900    

MPI Option Selected: intel
------------------------------------------------------------------------------------

Cleanup script file is C:\\Users\\kebl7595\\Desktop\\CFD\\Runs\\Flap\\15 degrees\\cleanup-fluent-Engs-30669-38920.bat

Posting ANSYS Product Improvement Program startup data
Done.

Reading journal file C:/Users/kebl7595/Desktop/CFD/Runs/Flap/15 degrees/project1.jou...

> /file/set-batch-options no no no 

> 
define/                 parametric-study/       solve/
display/                plot/                   surface/
exit                    preferences/            switch-to-meshing-mode
file/                   print-license-usage     turbo-workflow/
mesh/                   report/                 views/
parallel/               server/

> /file/import/cgns/mesh  "./project1.cgns"
Engs-30669 has other FLUENT parallel processes running.                       Process affinity not being set.

Importing "./project1.cgns"

Opening library "C:\\PROGRA~1\\ANSYSI~1\\v231\\fluent\\fluent23.1.0\\vki\\win64\\devtools4.4.6.dll"... done.

Read    33000 nodes
   24072 hexahedral cells, zone  1
   17404 quadrilateral wall faces, zone  2.
   63040 quadrilateral interior faces, zone  3.
     474 quadrilateral interface faces, zone  4.

Building...
     mesh
     materials,
     interface,
     domains,
     zones,
	interface-default_subface
	default_interior-1
	default_subface
	default
     parallel,
The automatic selection for flux type has changed to Rhie-Chow: momentum based.

Done.


> 
adjoint/                parallel/               server/
define/                 parametric-study/       solve/
display/                plot/                   surface/
exit                    preferences/            turbo-workflow/
file/                   print-license-usage     views/
mesh/                   report/

> /define/models/solver/density-based-implicit yes

> 
adjoint/                parallel/               server/
define/                 parametric-study/       solve/
display/                plot/                   surface/
exit                    preferences/            turbo-workflow/
file/                   print-license-usage     views/
mesh/                   report/

> /define/models/energy? yes yes invalid command [yes]
yes

> /define/models/viscous/kw-standard? yes

> 
adjoint/                parallel/               server/
define/                 parametric-study/       solve/
display/                plot/                   surface/
exit                    preferences/            turbo-workflow/
file/                   print-license-usage     views/
mesh/                   report/

> /define/materials/change-create air air air is a fluid
yes 
Density
ideal-gas no data required.

no no no no no no

> 
adjoint/                parallel/               server/
define/                 parametric-study/       solve/
display/                plot/                   surface/
exit                    preferences/            turbo-workflow/
file/                   print-license-usage     views/
mesh/                   report/

> /mesh/modify-zones/sep-face-zone-angle 2 90 yes

 8024 faces in contiguous region 0
 441 faces in contiguous region 1
 618 faces in contiguous region 2
 8024 faces in contiguous region 3
 297 faces in contiguous region 4
 Separates zone 2 into 5 zone(s).
Updating new zone information...
   created new zone default_subface:009 from default_subface
   created new zone default_subface:008 from default_subface
   created new zone default_subface:007 from default_subface
   created new zone default_subface:006 from default_subface
done.

> 
adjoint/                parallel/               server/
define/                 parametric-study/       solve/
display/                plot/                   surface/
exit                    preferences/            turbo-workflow/
file/                   print-license-usage     views/
mesh/                   report/

> /define/boundary-conditions/zone-name  6 wing

> /define/boundary-conditions/zone-name  2 sym1

> /define/boundary-conditions/zone-name  8 sym2

> 
adjoint/                parallel/               server/
define/                 parametric-study/       solve/
display/                plot/                   surface/
exit                    preferences/            turbo-workflow/
file/                   print-license-usage     views/
mesh/                   report/

> /define/boundary-conditions/zone-name  7 far1

> /define/boundary-conditions/zone-name 9 far2

> 
adjoint/                parallel/               server/
define/                 parametric-study/       solve/
display/                plot/                   surface/
exit                    preferences/            turbo-workflow/
file/                   print-license-usage     views/
mesh/                   report/

> /define/boundary-conditions/zone-type  7 pressure-far-field

> /define/boundary-conditions/zone-type 9 pressure-far-field

> /define/boundary-conditions/zone-type  2 symmetry

> /define/boundary-conditions/zone-type  8 symmetry

> 
adjoint/                parallel/               server/
define/                 parametric-study/       solve/
display/                plot/                   surface/
exit                    preferences/            turbo-workflow/
file/                   print-license-usage     views/
mesh/                   report/

> /define/boundary-conditions/pressure-far-field (far2 far1)
far1 no 0 no 0.1 no 300 yes no 0.96593 no -0.25882 no 0. no yes 5 0.02

> /define/boundary-conditions/pressure-far-field (far2 far1)
far2 no 0 no 0.1 no 300 yes no 0.96593 no -0.25882 no 0. no yes 5 0.02

> 
adjoint/                parallel/               server/
define/                 parametric-study/       solve/
display/                plot/                   surface/
exit                    preferences/            turbo-workflow/
file/                   print-license-usage     views/
mesh/                   report/

> /solve/initialize/compute-defaults/pressure-far-field (far2 far1)
far1

> /solve/initialize/initialize-flow

> 
adjoint/                parallel/               server/
define/                 parametric-study/       solve/
display/                plot/                   surface/
exit                    preferences/            turbo-workflow/
file/                   print-license-usage     views/
mesh/                   report/

> /solve/monitors/residual/convergence-criteria 1.e-9 1.e-9 1.e-9 1.e-9 1.e-9 1.e-9 1.e-9

> /solve/iterate 2000

  iter  continuity  x-velocity  y-velocity  z-velocity      energy           k       omega     time/iter
     1  1.0000e+00  1.0000e+00  1.0000e+00  1.0000e+00  1.0000e+00  4.6279e-02  4.9078e-02  0:00:00 1999
     2  4.6209e-01  2.5970e-01  2.7057e-01  1.0000e+00  4.6450e-01  4.1003e-02  3.5741e-02  0:33:18 1998
     3  2.0894e-01  1.4713e-01  1.6443e-01  1.0000e+00  2.0922e-01  3.6681e-02  3.0564e-02  0:26:38 1997
     4  1.4723e-01  8.7494e-02  1.1023e-01  9.4562e-01  1.4777e-01  3.3151e-02  2.7445e-02  0:27:57 1996
     5  1.2158e-01  6.0106e-02  8.5608e-02  9.7702e-01  1.2241e-01  3.0242e-02  2.5424e-02  0:22:21 1995
     6  1.0674e-01  4.2460e-02  7.0829e-02  9.3504e-01  1.0754e-01  2.7729e-02  2.3703e-02  0:17:52 1994
     7  9.4314e-02  2.8925e-02  6.0102e-02  9.4434e-01  9.4955e-02  2.5541e-02  2.2156e-02  0:14:17 1993
     8  8.6909e-02  1.9803e-02  5.2947e-02  9.7731e-01  8.7447e-02  2.3658e-02  2.0753e-02  0:11:25 1992
     9  8.0657e-02  1.4771e-02  4.8818e-02  1.0395e+00  8.1131e-02  2.2055e-02  1.9519e-02  0:15:46 1991
    10  7.4820e-02  1.2571e-02  4.7262e-02  1.0590e+00  7.5232e-02  2.0712e-02  1.8430e-02  0:12:37 1990
    11  6.9831e-02  1.1491e-02  4.7856e-02  9.9562e-01  7.0178e-02  1.9594e-02  1.7479e-02  0:10:05 1989

  iter  continuity  x-velocity  y-velocity  z-velocity      energy           k       omega     time/iter
    12  6.5993e-02  1.0688e-02  4.9149e-02  8.9467e-01  6.6290e-02  1.8624e-02  1.6633e-02  0:08:04 1988
    13  6.3897e-02  9.8575e-03  5.2141e-02  8.6521e-01  6.4162e-02  1.7800e-02  1.5875e-02  0:13:04 1987
    14  6.2423e-02  9.2829e-03  5.3965e-02  9.4683e-01  6.2660e-02  1.7077e-02  1.5221e-02  0:10:27 1986
    15  6.2148e-02  9.1738e-03  5.6229e-02  1.0669e+00  6.2376e-02  1.6437e-02  1.4672e-02  0:08:21 1985
    16  6.2796e-02  9.6849e-03  5.7176e-02  1.0651e+00  6.3018e-02  1.5833e-02  1.4188e-02  0:06:41 1984
    17  6.2979e-02  1.0872e-02  5.7510e-02  1.0754e+00  6.3199e-02  1.5292e-02  1.3715e-02  0:05:21 1983
    18  6.3034e-02  1.2251e-02  5.7539e-02  1.1118e+00  6.3254e-02  1.4793e-02  1.3292e-02  0:10:53 1982
    19  6.3555e-02  1.3305e-02  5.7274e-02  1.1502e+00  6.3780e-02  1.4351e-02  1.3023e-02  0:08:42 1981
    20  6.2346e-02  1.4351e-02  5.6859e-02  1.1759e+00  6.2561e-02  1.3958e-02  1.2680e-02  0:06:57 1980
    21  5.9123e-02  1.5360e-02  5.6203e-02  1.1727e+00  5.9312e-02  1.3615e-02  1.2388e-02  0:05:34 1979
    22  5.3972e-02  1.6026e-02  5.5134e-02  1.1494e+00  5.4120e-02  1.3313e-02  1.2025e-02  0:11:02 1978

  iter  continuity  x-velocity  y-velocity  z-velocity      energy           k       omega     time/iter
    23  4.7436e-02  1.6194e-02  5.4011e-02  1.1005e+00  4.7537e-02  1.3074e-02  1.1692e-02  0:08:50 1977
    24  4.0381e-02  1.5910e-02  5.2902e-02  1.0342e+00  4.0440e-02  1.2871e-02  1.1414e-02  0:07:04 1976
    25  3.3988e-02  1.5063e-02  5.1869e-02  9.5783e-01  3.4016e-02  1.2669e-02  1.1228e-02  0:05:39 1975
    26  2.9185e-02  1.3847e-02  5.0985e-02  8.9382e-01  2.9199e-02  1.2470e-02  1.0925e-02  0:11:06 1974
    27  2.6243e-02  1.2297e-02  5.0230e-02  8.4435e-01  2.6260e-02  1.2299e-02  1.0558e-02  0:08:52 1973
    28  2.4865e-02  1.0538e-02  4.9465e-02  8.0701e-01  2.4897e-02  1.2146e-02  1.0301e-02  0:07:06 1972
    29  2.4534e-02  8.8541e-03  4.8772e-02  7.7656e-01  2.4580e-02  1.1961e-02  1.0025e-02  0:12:14 1971
    30  2.4968e-02  7.7019e-03  4.8156e-02  7.4750e-01  2.5025e-02  1.1786e-02  9.7146e-03  0:09:47 1970
    31  2.5841e-02  6.8886e-03  4.7555e-02  7.2291e-01  2.5905e-02  1.1614e-02  9.4509e-03  0:07:50 1969
    32  2.6771e-02  6.2662e-03  4.6877e-02  6.9910e-01  2.6838e-02  1.1470e-02  9.2160e-03  0:12:49 1968
    33  2.7505e-02  5.7468e-03  4.6075e-02  6.7684e-01  2.7572e-02  1.1340e-02  8.9688e-03  0:10:15 1967

  iter  continuity  x-velocity  y-velocity  z-velocity      energy           k       omega     time/iter
    34  2.7948e-02  5.3128e-03  4.5141e-02  6.5265e-01  2.8012e-02  1.1226e-02  8.7216e-03  0:08:12 1966
    35  2.8041e-02  4.8934e-03  4.4037e-02  6.2617e-01  2.8098e-02  1.1126e-02  8.5305e-03  0:06:33 1965
    36  2.7778e-02  4.5075e-03  4.2772e-02  5.9700e-01  2.7823e-02  1.1057e-02  8.3512e-03  0:11:47 1964
    37  2.7262e-02  4.1649e-03  4.1374e-02  5.6584e-01  2.7294e-02  1.0988e-02  8.1657e-03  0:09:25 1963
    38  2.6529e-02  3.8913e-03  3.9852e-02  5.3310e-01  2.6546e-02  1.0913e-02  8.0047e-03  0:07:32 1962
    39  2.5613e-02  3.6847e-03  3.8228e-02  5.0150e-01  2.5614e-02  1.0852e-02  7.8684e-03  0:06:02 1961
    40  2.4872e-02  3.5641e-03  3.6565e-02  4.7066e-01  2.4858e-02  1.0790e-02  7.7405e-03  0:11:21 1960
    41  2.4348e-02  3.5709e-03  3.4917e-02  4.4323e-01  2.4321e-02  1.0719e-02  7.6315e-03  0:09:05 1959
    42  2.3854e-02  3.6691e-03  3.3300e-02  4.2095e-01  2.3815e-02  1.0648e-02  7.5726e-03  0:07:15 1958
    43  2.3498e-02  3.8172e-03  3.1723e-02  4.0291e-01  2.3451e-02  1.0579e-02  7.5244e-03  0:12:20 1957
    44  2.3369e-02  3.9665e-03  3.0216e-02  3.9004e-01  2.3317e-02  1.0500e-02  7.5285e-03  0:09:51 1956

  iter  continuity  x-velocity  y-velocity  z-velocity      energy           k       omega     time/iter
    45  2.3369e-02  4.1071e-03  2.8775e-02  3.8736e-01  2.3317e-02  1.0441e-02  7.4847e-03  0:07:53 1955
    46  2.3459e-02  4.2296e-03  2.7413e-02  3.9276e-01  2.3409e-02  1.0404e-02  7.5128e-03  0:06:18 1954
    47  2.3710e-02  4.3605e-03  2.6181e-02  4.0012e-01  2.3666e-02  1.0364e-02  7.4960e-03  0:11:33 1953
    48  2.4180e-02  4.4953e-03  2.5189e-02  4.1116e-01  2.4147e-02  1.0393e-02  7.5830e-03  0:09:14 1952
    49  2.4882e-02  4.6476e-03  2.4485e-02  4.2231e-01  2.4860e-02  1.0385e-02  7.5616e-03  0:07:23 1951
    50  2.5680e-02  4.7585e-03  2.4027e-02  4.3699e-01  2.5670e-02  1.0512e-02  7.6019e-03  0:12:24 1950
    51  2.6390e-02  4.8363e-03  2.4044e-02  4.5423e-01  2.6393e-02  1.0595e-02  7.5966e-03  0:09:55 1949
    52  2.7223e-02  4.9405e-03  2.4289e-02  4.6538e-01  2.7242e-02  1.0639e-02  7.5182e-03  0:07:56 1948
    53  2.7943e-02  4.9780e-03  2.4813e-02  4.7119e-01  2.7977e-02  1.0851e-02  7.5552e-03  0:06:20 1947
    54  2.8352e-02  5.0123e-03  2.5541e-02  4.8185e-01  2.8401e-02  1.1037e-02  7.5495e-03  0:11:33 1946
    55  2.8586e-02  5.0477e-03  2.6397e-02  4.9432e-01  2.8648e-02  1.0942e-02  7.4644e-03  0:09:14 1945

  iter  continuity  x-velocity  y-velocity  z-velocity      energy           k       omega     time/iter
    56  2.8830e-02  5.0152e-03  2.7284e-02  5.0722e-01  2.8904e-02  1.1051e-02  7.4153e-03  0:07:23 1944
    57  2.9045e-02  4.9947e-03  2.8152e-02  5.1824e-01  2.9128e-02  1.1315e-02  7.4546e-03  0:12:23 1943
    58  2.8972e-02  4.9679e-03  2.8892e-02  5.2680e-01  2.9054e-02  1.1439e-02  7.4629e-03  0:09:54 1942
    59  2.8738e-02  4.8692e-03  2.9445e-02  5.3276e-01  2.8813e-02  1.1402e-02  7.3842e-03  0:07:55 1941
    60  2.8377e-02  4.6996e-03  2.9859e-02  5.3680e-01  2.8438e-02  1.1391e-02  7.3239e-03  0:12:48 1940
    61  2.7864e-02  4.5351e-03  3.0236e-02  5.3696e-01  2.7909e-02  1.1489e-02  7.3237e-03  0:10:14 1939
    62  2.7448e-02  4.3761e-03  3.0234e-02  5.3740e-01  2.7478e-02  1.1763e-02  7.3255e-03  0:08:11 1938
    63  2.7155e-02  4.2620e-03  3.0258e-02  5.3524e-01  2.7172e-02  1.1755e-02  7.3338e-03  0:13:00 1937
    64  2.6871e-02  4.1548e-03  3.0170e-02  5.2575e-01  2.6879e-02  1.1868e-02  7.3381e-03  0:10:24 1936
    65  2.6653e-02  3.9807e-03  2.9795e-02  5.1543e-01  2.6655e-02  1.1890e-02  7.3247e-03  0:14:46 1935
    66  2.6381e-02  3.7901e-03  2.9438e-02  5.0136e-01  2.6377e-02  1.1877e-02  7.3294e-03  0:11:48 1934

  iter  continuity  x-velocity  y-velocity  z-velocity      energy           k       omega     time/iter
    67  2.6178e-02  3.6504e-03  2.9256e-02  4.9402e-01  2.6169e-02  1.1988e-02  7.3917e-03  0:09:26 1933
    68  2.6014e-02  3.5376e-03  2.9042e-02  4.8929e-01  2.6002e-02  1.2194e-02  7.4204e-03  0:13:59 1932
    69  2.5939e-02  3.4989e-03  2.8675e-02  4.9136e-01  2.5926e-02  1.2179e-02  7.4826e-03  0:11:11 1931
    70  2.5826e-02  3.4910e-03  2.8128e-02  5.0048e-01  2.5812e-02  1.2412e-02  7.5044e-03  0:08:56 1930
    71  2.5564e-02  3.4821e-03  2.7347e-02  6.6353e-01  2.5549e-02  1.2484e-02  7.5136e-03  0:13:35 1929
    72  2.5143e-02  3.4278e-03  2.6397e-02  1.0424e+00  2.5126e-02  1.2404e-02  7.5161e-03  0:10:51 1928
    73  2.4469e-02  3.4430e-03  2.5277e-02  1.4181e+00  2.4449e-02  1.2417e-02  7.5173e-03  0:08:41 1927
    74  2.3576e-02  3.5467e-03  2.4085e-02  1.9130e+00  2.3552e-02  1.2447e-02  7.5287e-03  0:13:22 1926
    75  2.2567e-02  3.6570e-03  2.2866e-02  2.4982e+00  2.2537e-02  1.2515e-02  7.4960e-03  0:10:41 1925
    76  2.1474e-02  3.7366e-03  2.1606e-02  2.3680e+00  2.1440e-02  1.2537e-02  7.4515e-03  0:08:33 1924
    77  2.0386e-02  3.8047e-03  2.0370e-02  1.9956e+00  2.0348e-02  1.2441e-02  7.4258e-03  0:13:14 1923

  iter  continuity  x-velocity  y-velocity  z-velocity      energy           k       omega     time/iter
    78  1.9294e-02  3.8490e-03  1.9219e-02  2.1059e+00  1.9253e-02  1.2419e-02  7.3988e-03  0:10:35 1922
    79  1.8253e-02  3.8701e-03  1.8185e-02  2.2018e+00  1.8211e-02  1.2516e-02  7.3945e-03  0:14:52 1921
    80  1.7339e-02  3.8525e-03  1.7214e-02  2.3604e+00  1.7299e-02  1.2543e-02  7.3187e-03  0:11:53 1920
    81  1.6622e-02  3.8281e-03  1.6277e-02  2.4187e+00  1.6584e-02  1.2543e-02  7.2748e-03  0:09:30 1919
    82  1.6081e-02  3.8420e-03  1.5708e-02  2.3629e+00  1.6048e-02  1.2530e-02  7.2353e-03  0:14:00 1918
    83  1.5582e-02  3.8580e-03  1.5422e-02  2.7916e+00  1.5553e-02  1.2542e-02  7.2097e-03  0:11:11 1917
    84  1.5286e-02  3.8999e-03  1.5363e-02  3.2642e+00  1.5264e-02  1.2557e-02  7.1537e-03  0:15:20 1916
    85  1.5046e-02  3.9523e-03  1.5484e-02  3.4584e+00  1.5031e-02  1.2601e-02  7.0819e-03  0:12:16 1915
    86  1.4869e-02  4.0127e-03  1.5741e-02  3.3465e+00  1.4860e-02  1.2664e-02  7.0162e-03  0:09:48 1914
    87  1.4795e-02  4.0754e-03  1.6087e-02  2.9718e+00  1.4792e-02  1.2717e-02  6.9367e-03  0:14:13 1913
    88  1.4728e-02  4.1247e-03  1.6478e-02  2.4916e+00  1.4730e-02  1.2710e-02  6.8673e-03  0:11:22 1912

  iter  continuity  x-velocity  y-velocity  z-velocity      energy           k       omega     time/iter
    89  1.4758e-02  4.1717e-03  1.6864e-02  2.0394e+00  1.4765e-02  1.2668e-02  6.8289e-03  0:15:27 1911
    90  1.4861e-02  4.2403e-03  1.7225e-02  1.8670e+00  1.4871e-02  1.2696e-02  6.8074e-03  0:12:22 1910
    91  1.5058e-02  4.2978e-03  1.7558e-02  1.9669e+00  1.5070e-02  1.2714e-02  6.8082e-03  0:09:53 1909
    92  1.5324e-02  4.3443e-03  1.7861e-02  2.1408e+00  1.5338e-02  1.2753e-02  6.7778e-03  0:14:16 1908
    93  1.5698e-02  4.3804e-03  1.8137e-02  2.2975e+00  1.5713e-02  1.2749e-02  6.7545e-03  0:11:24 1907
    94  1.6214e-02  4.3861e-03  1.8379e-02  2.4211e+00  1.6231e-02  1.2766e-02  6.7211e-03  0:09:07 1906
    95  1.6912e-02  4.3754e-03  1.8598e-02  2.4940e+00  1.6930e-02  1.2830e-02  6.7135e-03  0:13:38 1905
    96  1.7811e-02  4.3444e-03  1.8782e-02  2.5025e+00  1.7832e-02  1.2856e-02  6.6779e-03  0:10:54 1904
    97  1.8920e-02  4.2934e-03  1.8932e-02  2.4395e+00  1.8943e-02  1.2897e-02  6.6583e-03  0:15:04 1903
    98  2.0149e-02  4.2267e-03  1.9033e-02  2.3413e+00  2.0175e-02  1.2941e-02  6.6207e-03  0:12:03 1902
    99  2.1444e-02  4.1685e-03  1.9079e-02  2.2414e+00  2.1472e-02  1.2969e-02  6.6062e-03  0:09:38 1901

  iter  continuity  x-velocity  y-velocity  z-velocity      energy           k       omega     time/iter
   100  2.2804e-02  4.1060e-03  1.9082e-02  2.1416e+00  2.2834e-02  1.3001e-02  6.5734e-03  0:14:02 1900
   101  2.4195e-02  4.0428e-03  1.9047e-02  2.0344e+00  2.4228e-02  1.2994e-02  6.5243e-03  0:11:13 1899
   102  2.5575e-02  3.9883e-03  1.8960e-02  1.9224e+00  2.5610e-02  1.2999e-02  6.4795e-03  0:08:58 1898
   103  2.6836e-02  3.9524e-03  1.8828e-02  1.8122e+00  2.6872e-02  1.2969e-02  6.4432e-03  0:13:30 1897
   104  2.7915e-02  3.9314e-03  1.8695e-02  1.7162e+00  2.7953e-02  1.2939e-02  6.4192e-03  0:10:48 1896
   105  2.8698e-02  3.9457e-03  1.8539e-02  1.6331e+00  2.8737e-02  1.2919e-02  6.3739e-03  0:14:57 1895
   106  2.9161e-02  3.9970e-03  1.8369e-02  1.5636e+00  2.9202e-02  1.2850e-02  6.3194e-03  0:11:57 1894
   107  2.9191e-02  4.0833e-03  1.8184e-02  1.5056e+00  2.9233e-02  1.2817e-02  6.2604e-03  0:09:33 1893
   108  2.8811e-02  4.2069e-03  1.7967e-02  1.4489e+00  2.8852e-02  1.2764e-02  6.2010e-03  0:13:57 1892
   109  2.7954e-02  4.3840e-03  1.7763e-02  1.4054e+00  2.7996e-02  1.2672e-02  6.1337e-03  0:11:09 1891
   110  2.6483e-02  4.5699e-03  1.7478e-02  1.3615e+00  2.6523e-02  1.2582e-02  6.0814e-03  0:08:55 1890

  iter  continuity  x-velocity  y-velocity  z-velocity      energy           k       omega     time/iter
   111  2.4464e-02  4.7785e-03  1.7092e-02  1.3218e+00  2.4500e-02  1.2494e-02  6.0427e-03  0:13:26 1889
   112  2.2027e-02  4.9575e-03  1.6571e-02  1.2809e+00  2.2059e-02  1.2373e-02  5.9891e-03  0:10:44 1888
   113  1.9382e-02  5.0585e-03  1.5919e-02  1.2356e+00  1.9409e-02  1.2253e-02  5.9204e-03  0:14:52 1887
   114  1.6647e-02  5.0818e-03  1.5140e-02  1.1871e+00  1.6668e-02  1.2162e-02  5.8454e-03  0:11:54 1886
   115  1.4063e-02  5.0178e-03  1.4275e-02  1.1397e+00  1.4076e-02  1.2048e-02  5.7817e-03  0:09:31 1885
   116  1.1850e-02  4.8608e-03  1.3407e-02  1.0926e+00  1.1856e-02  1.1952e-02  5.6885e-03  0:13:53 1884
   117  1.0160e-02  4.6267e-03  1.2591e-02  1.0455e+00  1.0160e-02  1.1852e-02  5.5892e-03  0:11:06 1883
   118  9.0906e-03  4.3434e-03  1.1894e-02  9.9461e-01  9.0858e-03  1.1729e-02  5.4750e-03  0:15:09 1882
   119  8.6691e-03  4.0138e-03  1.1299e-02  9.4102e-01  8.6606e-03  1.1648e-02  5.3660e-03  0:12:07 1881
   120  8.8415e-03  3.6795e-03  1.0835e-02  8.8567e-01  8.8314e-03  1.1577e-02  5.2699e-03  0:09:41 1880
   121  9.3862e-03  3.3407e-03  1.0518e-02  8.3135e-01  9.3759e-03  1.1513e-02  5.1805e-03  0:14:00 1879

  iter  continuity  x-velocity  y-velocity  z-velocity      energy           k       omega     time/iter
   122  1.0083e-02  3.0208e-03  1.0309e-02  7.7780e-01  1.0073e-02  1.1492e-02  5.0905e-03  0:11:12 1878
   123  1.0738e-02  2.7332e-03  1.0161e-02  7.2670e-01  1.0728e-02  1.1486e-02  5.0040e-03  0:15:13 1877
   124  1.1336e-02  2.4819e-03  1.0057e-02  6.7760e-01  1.1326e-02  1.1492e-02  4.9496e-03  0:12:10 1876
   125  1.1828e-02  2.3012e-03  9.9632e-03  6.3544e-01  1.1817e-02  1.1496e-02  4.9109e-03  0:09:44 1875
   126  1.2202e-02  2.2030e-03  9.8849e-03  6.0112e-01  1.2190e-02  1.1501e-02  4.8777e-03  0:14:01 1874
   127  1.2449e-02  2.1924e-03  9.8467e-03  5.7555e-01  1.2435e-02  1.1523e-02  4.8496e-03  0:11:13 1873
   128  1.2670e-02  2.2408e-03  9.8286e-03  5.5707e-01  1.2655e-02  1.1549e-02  4.8324e-03  0:15:12 1872
   129  1.2896e-02  2.3153e-03  9.8527e-03  5.4449e-01  1.2879e-02  1.1585e-02  4.8086e-03  0:12:09 1871
   130  1.3086e-02  2.4320e-03  9.9519e-03  5.3827e-01  1.3066e-02  1.1643e-02  4.7818e-03  0:15:57 1870
   131  1.3313e-02  2.5715e-03  1.0116e-02  5.3194e-01  1.3292e-02  1.1683e-02  4.7621e-03  0:12:45 1869
   132  1.3527e-02  2.6956e-03  1.0328e-02  5.2982e-01  1.3504e-02  1.1701e-02  4.7462e-03  0:10:12 1868

  iter  continuity  x-velocity  y-velocity  z-velocity      energy           k       omega     time/iter
   133  1.3785e-02  2.7984e-03  1.0580e-02  5.2678e-01  1.3760e-02  1.1754e-02  4.7270e-03  0:14:23 1867
   134  1.4056e-02  2.8947e-03  1.0862e-02  5.2733e-01  1.4030e-02  1.1789e-02  4.7074e-03  0:11:30 1866
   135  1.4337e-02  2.9813e-03  1.1167e-02  5.3736e-01  1.4310e-02  1.1803e-02  4.6852e-03  0:15:25 1865
   136  1.4624e-02  3.0386e-03  1.1481e-02  5.6194e-01  1.4595e-02  1.1827e-02  4.6649e-03  0:12:19 1864
   137  1.4882e-02  3.0820e-03  1.1782e-02  6.0296e-01  1.4852e-02  1.1842e-02  4.6528e-03  0:16:04 1863
   138  1.5083e-02  3.1151e-03  1.2056e-02  6.6012e-01  1.5052e-02  1.1863e-02  4.6300e-03  0:12:51 1862
   139  1.5256e-02  3.1496e-03  1.2313e-02  7.3349e-01  1.5224e-02  1.1885e-02  4.6022e-03  0:10:16 1861
   140  1.5399e-02  3.1703e-03  1.2559e-02  8.1961e-01  1.5366e-02  1.1898e-02  4.5877e-03  0:14:25 1860
   141  1.5516e-02  3.1903e-03  1.2784e-02  9.1597e-01  1.5483e-02  1.1928e-02  4.5720e-03  0:11:31 1859
   142  1.5603e-02  3.1940e-03  1.2992e-02  1.0168e+00  1.5569e-02  1.1940e-02  4.5517e-03  0:15:24 1858
   143  1.5726e-02  3.1947e-03  1.3199e-02  1.1197e+00  1.5693e-02  1.1950e-02  4.5319e-03  0:12:19 1857

  iter  continuity  x-velocity  y-velocity  z-velocity      energy           k       omega     time/iter
   144  1.5881e-02  3.1962e-03  1.3406e-02  1.2201e+00  1.5848e-02  1.1973e-02  4.5017e-03  0:09:51 1856
   145  1.6099e-02  3.1929e-03  1.3627e-02  1.3132e+00  1.6067e-02  1.1991e-02  4.4824e-03  0:14:04 1855
   146  1.6325e-02  3.1823e-03  1.3842e-02  1.3972e+00  1.6293e-02  1.1993e-02  4.4572e-03  0:11:14 1854
   147  1.6544e-02  3.1751e-03  1.4055e-02  1.4685e+00  1.6513e-02  1.2002e-02  4.4264e-03  0:15:10 1853
   148  1.6828e-02  3.1671e-03  1.4278e-02  1.5276e+00  1.6799e-02  1.1992e-02  4.4116e-03  0:12:07 1852
   149  1.7139e-02  3.1549e-03  1.4482e-02  1.5724e+00  1.7112e-02  1.1958e-02  4.3768e-03  0:09:42 1851
   150  1.7374e-02  3.1440e-03  1.4678e-02  1.6046e+00  1.7348e-02  1.1963e-02  4.3728e-03  0:13:55 1850
   151  1.7671e-02  3.1353e-03  1.4870e-02  1.6215e+00  1.7648e-02  1.1957e-02  4.3523e-03  0:11:08 1849
   152  1.8017e-02  3.1270e-03  1.5050e-02  1.6265e+00  1.7996e-02  1.1903e-02  4.3175e-03  0:15:03 1848
   153  1.8480e-02  3.1223e-03  1.5220e-02  1.6208e+00  1.8463e-02  1.1867e-02  4.3286e-03  0:12:02 1847
   154  1.9039e-02  3.1173e-03  1.5385e-02  1.6138e+00  1.9026e-02  1.1827e-02  4.3276e-03  0:09:38 1846

  iter  continuity  x-velocity  y-velocity  z-velocity      energy           k       omega     time/iter
   155  1.9670e-02  3.1188e-03  1.5498e-02  1.6061e+00  1.9661e-02  1.1749e-02  4.3246e-03  0:13:51 1845
   156  2.0372e-02  3.1238e-03  1.5588e-02  1.6022e+00  2.0367e-02  1.1714e-02  4.3285e-03  0:11:04 1844
   157  2.1119e-02  3.1276e-03  1.5639e-02  1.5974e+00  2.1118e-02  1.1651e-02  4.3276e-03  0:15:00 1843
   158  2.1825e-02  3.1302e-03  1.5657e-02  1.5901e+00  2.1827e-02  1.1569e-02  4.3289e-03  0:11:59 1842
   159  2.2425e-02  3.1299e-03  1.5623e-02  1.5862e+00  2.2431e-02  1.1456e-02  4.3570e-03  0:09:35 1841
   160  2.2830e-02  3.1376e-03  1.5509e-02  1.5774e+00  2.2839e-02  1.1365e-02  4.3900e-03  0:13:48 1840
   161  2.2936e-02  3.1448e-03  1.5356e-02  1.5672e+00  2.2947e-02  1.1245e-02  4.3934e-03  0:11:02 1839
   162  2.2774e-02  3.1500e-03  1.5144e-02  1.5486e+00  2.2786e-02  1.1114e-02  4.3912e-03  0:14:57 1838
   163  2.2418e-02  3.1391e-03  1.4899e-02  1.5217e+00  2.2430e-02  1.0986e-02  4.3576e-03  0:11:57 1837
   164  2.1914e-02  3.1241e-03  1.4645e-02  1.4933e+00  2.1927e-02  1.0853e-02  4.3457e-03  0:15:41 1836
   165  2.1295e-02  3.1142e-03  1.4379e-02  1.4563e+00  2.1307e-02  1.0741e-02  4.3472e-03  0:12:32 1835

  iter  continuity  x-velocity  y-velocity  z-velocity      energy           k       omega     time/iter
   166  2.0604e-02  3.1096e-03  1.4120e-02  1.4104e+00  2.0614e-02  1.0638e-02  4.3169e-03  0:10:01 1834
   167  1.9888e-02  3.1149e-03  1.3852e-02  1.3890e+00  1.9896e-02  1.0548e-02  4.2841e-03  0:14:07 1833
   168  1.9166e-02  3.1181e-03  1.3599e-02  1.3756e+00  1.9170e-02  1.0468e-02  4.2728e-03  0:11:18 1832
   169  1.8463e-02  3.1073e-03  1.3367e-02  1.3592e+00  1.8465e-02  1.0397e-02  4.2616e-03  0:15:08 1831
   170  1.7810e-02  3.0942e-03  1.3144e-02  1.3666e+00  1.7809e-02  1.0341e-02  4.2352e-03  0:12:06 1830
   171  1.7175e-02  3.0674e-03  1.2869e-02  1.3813e+00  1.7172e-02  1.0283e-02  4.1735e-03  0:15:46 1829
   172  1.6523e-02  3.0214e-03  1.2601e-02  1.4126e+00  1.6518e-02  1.0231e-02  4.1350e-03  0:12:37 1828
   173  1.5844e-02  2.9757e-03  1.2318e-02  1.4438e+00  1.5837e-02  1.0178e-02  4.0767e-03  0:10:05 1827
   174  1.5098e-02  2.9258e-03  1.1976e-02  1.4448e+00  1.5090e-02  1.0108e-02  4.0547e-03  0:14:09 1826
   175  1.4167e-02  2.8743e-03  1.1638e-02  1.4206e+00  1.4157e-02  1.0034e-02  4.0130e-03  0:11:19 1825
   176  1.3186e-02  2.8200e-03  1.1306e-02  1.3903e+00  1.3176e-02  9.9668e-03  3.9816e-03  0:15:07 1824

  iter  continuity  x-velocity  y-velocity  z-velocity      energy           k       omega     time/iter
   177  1.2232e-02  2.7465e-03  1.0860e-02  1.3502e+00  1.2222e-02  9.9167e-03  3.9323e-03  0:12:06 1823
   178  1.1361e-02  2.6661e-03  1.0509e-02  1.2996e+00  1.1350e-02  9.8637e-03  3.8903e-03  0:15:45 1822
   179  1.0602e-02  2.5987e-03  1.0220e-02  1.2568e+00  1.0593e-02  9.8250e-03  3.8397e-03  0:12:35 1821
   180  1.0012e-02  2.5386e-03  9.9762e-03  1.2120e+00  1.0004e-02  9.7891e-03  3.8068e-03  0:10:04 1820
   181  9.6711e-03  2.4872e-03  9.7947e-03  1.1713e+00  9.6646e-03  9.7779e-03  3.8011e-03  0:14:07 1819
   182  9.6555e-03  2.4516e-03  9.6835e-03  1.1581e+00  9.6517e-03  9.7917e-03  3.7839e-03  0:11:17 1818
   183  9.8656e-03  2.4276e-03  9.6349e-03  1.1428e+00  9.8644e-03  9.8255e-03  3.7603e-03  0:15:05 1817
   184  1.0523e-02  2.4148e-03  9.6542e-03  1.1514e+00  1.0525e-02  9.8577e-03  3.7486e-03  0:12:03 1816
   185  1.1595e-02  2.4174e-03  9.7415e-03  1.1815e+00  1.1601e-02  9.8822e-03  3.7421e-03  0:15:41 1815
   186  1.3013e-02  2.4396e-03  9.8846e-03  1.2174e+00  1.3023e-02  9.9067e-03  3.7550e-03  0:12:33 1814
   187  1.4661e-02  2.4788e-03  1.0080e-02  1.2517e+00  1.4675e-02  9.9249e-03  3.7840e-03  0:16:04 1813

  iter  continuity  x-velocity  y-velocity  z-velocity      energy           k       omega     time/iter
   188  1.6562e-02  2.5468e-03  1.0328e-02  1.2791e+00  1.6580e-02  9.9409e-03  3.8046e-03  0:12:51 1812
   189  1.8785e-02  2.6263e-03  1.0616e-02  1.2962e+00  1.8808e-02  9.9714e-03  3.8325e-03  0:16:19 1811
   190  2.0878e-02  2.7146e-03  1.0910e-02  1.3093e+00  2.0904e-02  1.0006e-02  3.8644e-03  0:13:03 1810
   191  2.3117e-02  2.8102e-03  1.1199e-02  1.3224e+00  2.3148e-02  1.0025e-02  3.9032e-03  0:10:26 1809
   192  2.5294e-02  2.9049e-03  1.1468e-02  1.3323e+00  2.5327e-02  1.0039e-02  3.9496e-03  0:14:22 1808
   193  2.7623e-02  2.9937e-03  1.1713e-02  1.3345e+00  2.7660e-02  1.0039e-02  4.0014e-03  0:11:29 1807
   194  2.9762e-02  3.1001e-03  1.1936e-02  1.3306e+00  2.9802e-02  1.0030e-02  4.0516e-03  0:15:12 1806
   195  3.1748e-02  3.2211e-03  1.2113e-02  1.3101e+00  3.1789e-02  1.0030e-02  4.1226e-03  0:12:09 1805
   196  3.3966e-02  3.3705e-03  1.2254e-02  1.2752e+00  3.4009e-02  1.0027e-02  4.1950e-03  0:15:44 1804
   197  3.6174e-02  3.5354e-03  1.2352e-02  1.2306e+00  3.6220e-02  1.0019e-02  4.2807e-03  0:12:35 1803
   198  3.6950e-02  3.7005e-03  1.2421e-02  1.1917e+00  3.6995e-02  1.0004e-02  4.3377e-03  0:16:04 1802

  iter  continuity  x-velocity  y-velocity  z-velocity      energy           k       omega     time/iter
   199  3.8384e-02  3.9098e-03  1.2475e-02  1.1484e+00  3.8429e-02  9.9808e-03  4.3859e-03  0:12:51 1801
   200  3.8720e-02  4.0938e-03  1.2519e-02  1.0989e+00  3.8763e-02  9.9365e-03  4.4031e-03  0:16:16 1800
   201  3.8517e-02  4.2713e-03  1.2556e-02  1.1108e+00  3.8558e-02  9.8713e-03  4.5024e-03  0:13:01 1799
   202  3.8445e-02  4.4586e-03  1.2584e-02  1.0776e+00  3.8482e-02  9.7996e-03  4.5204e-03  0:10:24 1798
   203  3.7788e-02  4.6122e-03  1.2593e-02  1.0344e+00  3.7822e-02  9.7172e-03  4.4831e-03  0:14:18 1797
   204  3.6386e-02  4.7416e-03  1.2537e-02  9.9356e-01  3.6415e-02  9.6339e-03  4.4594e-03  0:11:26 1796
   205  3.4214e-02  4.8656e-03  1.2434e-02  9.5646e-01  3.4238e-02  9.5701e-03  4.5168e-03  0:15:08 1795
   206  3.1530e-02  4.9645e-03  1.2281e-02  9.4295e-01  3.1548e-02  9.4951e-03  4.4381e-03  0:12:06 1794
   207  2.8398e-02  4.9873e-03  1.2064e-02  8.8888e-01  2.8411e-02  9.4132e-03  4.3560e-03  0:15:39 1793
   208  2.4899e-02  4.9474e-03  1.1733e-02  8.4873e-01  2.4907e-02  9.3317e-03  4.3469e-03  0:12:31 1792
   209  2.1049e-02  4.8543e-03  1.1269e-02  8.2458e-01  2.1052e-02  9.2445e-03  4.3166e-03  0:15:58 1791

  iter  continuity  x-velocity  y-velocity  z-velocity      energy           k       omega     time/iter
   210  1.7122e-02  4.7025e-03  1.0694e-02  8.0165e-01  1.7122e-02  9.1256e-03  4.2151e-03  0:12:46 1790
   211  1.3452e-02  4.4938e-03  1.0033e-02  7.7813e-01  1.3451e-02  8.9854e-03  4.1079e-03  0:16:11 1789
   212  1.0437e-02  4.2450e-03  9.4106e-03  7.4635e-01  1.0434e-02  8.8756e-03  4.0955e-03  0:12:56 1788
   213  8.3724e-03  4.0309e-03  8.9001e-03  7.0996e-01  8.3713e-03  8.7672e-03  4.0653e-03  0:10:20 1787
   214  7.4563e-03  3.8672e-03  8.6077e-03  6.7667e-01  7.4575e-03  8.6259e-03  3.9656e-03  0:14:13 1786
   215  7.7873e-03  3.7328e-03  8.5827e-03  6.3450e-01  7.7908e-03  8.4710e-03  3.8646e-03  0:11:22 1785
   216  9.0097e-03  3.6396e-03  8.8003e-03  6.1119e-01  9.0145e-03  8.3387e-03  3.8262e-03  0:15:02 1784
   217  1.0586e-02  3.5783e-03  9.1849e-03  5.8803e-01  1.0591e-02  8.2162e-03  3.7651e-03  0:12:01 1783
   218  1.2131e-02  3.5493e-03  9.6425e-03  5.6533e-01  1.2137e-02  8.0902e-03  3.6970e-03  0:15:33 1782
   219  1.3413e-02  3.5420e-03  1.0082e-02  5.3908e-01  1.3420e-02  7.9476e-03  3.6211e-03  0:12:26 1781
   220  1.4333e-02  3.5398e-03  1.0454e-02  5.0997e-01  1.4342e-02  7.8049e-03  3.5748e-03  0:15:53 1780

  iter  continuity  x-velocity  y-velocity  z-velocity      energy           k       omega     time/iter
   221  1.4873e-02  3.5709e-03  1.0709e-02  4.8715e-01  1.4883e-02  7.6913e-03  3.5449e-03  0:12:42 1779
   222  1.5004e-02  3.6412e-03  1.0825e-02  4.6605e-01  1.5015e-02  7.5802e-03  3.5001e-03  0:16:05 1778
   223  1.4985e-02  3.7308e-03  1.0863e-02  4.5004e-01  1.4997e-02  7.4624e-03  3.4250e-03  0:12:51 1777
   224  1.4631e-02  3.7149e-03  1.0786e-02  4.3824e-01  1.4644e-02  7.3431e-03  3.3623e-03  0:10:17 1776
   225  1.3537e-02  3.6776e-03  1.0590e-02  4.3143e-01  1.3549e-02  7.2168e-03  3.3082e-03  0:14:08 1775
   226  1.2792e-02  3.6440e-03  1.0449e-02  4.2773e-01  1.2803e-02  7.0937e-03  3.2800e-03  0:11:18 1774
   227  1.1911e-02  3.5831e-03  1.0340e-02  4.2721e-01  1.1921e-02  6.9851e-03  3.2488e-03  0:14:57 1773
   228  1.1181e-02  3.5320e-03  1.0222e-02  4.2726e-01  1.1191e-02  6.8811e-03  3.2197e-03  0:11:57 1772
   229  1.0496e-02  3.4871e-03  1.0086e-02  4.2722e-01  1.0505e-02  6.7915e-03  3.1820e-03  0:15:27 1771
   230  9.9876e-03  3.4229e-03  9.9679e-03  4.2674e-01  9.9957e-03  6.6927e-03  3.1279e-03  0:12:22 1770
   231  9.6486e-03  3.3393e-03  9.8693e-03  4.2575e-01  9.6561e-03  6.5947e-03  3.0943e-03  0:15:47 1769

  iter  continuity  x-velocity  y-velocity  z-velocity      energy           k       omega     time/iter
   232  9.5721e-03  3.2286e-03  9.7414e-03  4.2439e-01  9.5794e-03  6.5006e-03  3.0611e-03  0:12:37 1768
   233  9.5946e-03  3.0980e-03  9.6322e-03  4.2224e-01  9.6018e-03  6.4066e-03  3.0235e-03  0:15:59 1767
   234  1.0226e-02  2.9830e-03  9.5354e-03  4.1922e-01  1.0234e-02  6.3101e-03  3.0027e-03  0:18:40 1766
   235  1.0717e-02  2.8645e-03  9.4591e-03  4.1508e-01  1.0725e-02  6.2194e-03  2.9794e-03  0:14:55 1765
   236  1.1230e-02  2.7466e-03  9.3941e-03  4.0969e-01  1.1239e-02  6.1320e-03  2.9609e-03  0:17:49 1764
   237  1.1780e-02  2.6238e-03  9.3303e-03  4.0359e-01  1.1790e-02  6.0484e-03  2.9459e-03  0:14:14 1763
   238  1.2232e-02  2.4444e-03  9.2721e-03  3.9567e-01  1.2243e-02  5.9659e-03  2.9496e-03  0:17:16 1762
   239  1.2693e-02  2.2588e-03  9.2160e-03  3.8652e-01  1.2703e-02  5.8799e-03  2.9438e-03  0:13:48 1761
   240  1.3152e-02  2.0954e-03  9.1625e-03  3.7696e-01  1.3163e-02  5.8111e-03  2.9360e-03  0:16:54 1760
   241  1.3602e-02  1.9552e-03  9.1075e-03  3.6813e-01  1.3614e-02  5.7508e-03  2.9250e-03  0:13:31 1759
   242  1.3986e-02  1.8445e-03  9.0462e-03  3.6093e-01  1.3999e-02  5.6949e-03  2.9169e-03  0:16:40 1758

  iter  continuity  x-velocity  y-velocity  z-velocity      energy           k       omega     time/iter
   243  1.4267e-02  1.7500e-03  8.9974e-03  3.5484e-01  1.4281e-02  5.6383e-03  2.9003e-03  0:13:19 1757
   244  1.4426e-02  1.6926e-03  8.9696e-03  3.5105e-01  1.4441e-02  5.5807e-03  2.8961e-03  0:16:30 1756
   245  1.4429e-02  1.6637e-03  8.9469e-03  3.4970e-01  1.4444e-02  5.5283e-03  2.8812e-03  0:13:12 1755
   246  1.4222e-02  1.6467e-03  8.9283e-03  3.5089e-01  1.4237e-02  5.4880e-03  2.8637e-03  0:16:24 1754
   247  1.3788e-02  1.6292e-03  8.9166e-03  3.5479e-01  1.3803e-02  5.4562e-03  2.8597e-03  0:13:07 1753
   248  1.3134e-02  1.6174e-03  8.9152e-03  3.5967e-01  1.3148e-02  5.4300e-03  2.8470e-03  0:16:19 1752
   249  1.2298e-02  1.6145e-03  8.9210e-03  3.6599e-01  1.2310e-02  5.3995e-03  2.8361e-03  0:13:03 1751
   250  1.1301e-02  1.6203e-03  8.9290e-03  3.7346e-01  1.1312e-02  5.3704e-03  2.8182e-03  0:16:16 1750
   251  1.0236e-02  1.6279e-03  8.9506e-03  3.8179e-01  1.0244e-02  5.3478e-03  2.8080e-03  0:13:00 1749
   252  9.1960e-03  1.6417e-03  8.9869e-03  3.9198e-01  9.2031e-03  5.3300e-03  2.7982e-03  0:16:14 1748
   253  8.2051e-03  1.6494e-03  9.0337e-03  4.0126e-01  8.2105e-03  5.3133e-03  2.7957e-03  0:12:58 1747

  iter  continuity  x-velocity  y-velocity  z-velocity      energy           k       omega     time/iter
   254  7.2724e-03  1.6474e-03  9.0859e-03  4.0955e-01  7.2762e-03  5.2892e-03  2.7943e-03  0:16:12 1746
   255  6.4119e-03  1.6409e-03  9.1425e-03  4.1762e-01  6.4142e-03  5.2677e-03  2.7891e-03  0:12:57 1745
   256  5.6921e-03  1.6322e-03  9.1930e-03  4.2608e-01  5.6933e-03  5.2505e-03  2.7699e-03  0:16:10 1744
   257  5.0976e-03  1.6240e-03  9.2518e-03  4.3306e-01  5.0983e-03  5.2340e-03  2.7521e-03  0:12:55 1743
   258  4.6455e-03  1.6223e-03  9.3174e-03  4.4062e-01  4.6461e-03  5.2091e-03  2.7464e-03  0:10:20 1742
   259  4.3284e-03  1.6197e-03  9.3863e-03  4.4822e-01  4.3292e-03  5.1810e-03  2.7490e-03  0:14:04 1741
   260  4.1159e-03  1.6162e-03  9.4556e-03  4.5246e-01  4.1172e-03  5.1552e-03  2.7418e-03  0:11:15 1740
   261  3.9553e-03  1.6102e-03  9.5231e-03  4.5539e-01  3.9571e-03  5.1323e-03  2.7379e-03  0:14:47 1739
   262  3.8347e-03  1.6042e-03  9.5861e-03  4.5986e-01  3.8371e-03  5.1060e-03  2.7178e-03  0:11:49 1738
   263  3.7283e-03  1.6004e-03  9.6459e-03  4.6350e-01  3.7312e-03  5.0860e-03  2.7000e-03  0:15:15 1737
   264  3.6096e-03  1.5950e-03  9.6977e-03  4.6292e-01  3.6128e-03  5.0540e-03  2.6840e-03  0:12:11 1736

  iter  continuity  x-velocity  y-velocity  z-velocity      energy           k       omega     time/iter
   265  3.4214e-03  1.5878e-03  9.7397e-03  4.6181e-01  3.4247e-03  5.0170e-03  2.6665e-03  0:15:32 1735
   266  3.2498e-03  1.5821e-03  9.7724e-03  4.6096e-01  3.2532e-03  4.9876e-03  2.6571e-03  0:12:25 1734
   267  3.1247e-03  1.5758e-03  9.7964e-03  4.6037e-01  3.1280e-03  4.9543e-03  2.6460e-03  0:15:42 1733
   268  3.1304e-03  1.5673e-03  9.8131e-03  4.5767e-01  3.1338e-03  4.9182e-03  2.6375e-03  0:12:33 1732
   269  3.2804e-03  1.5560e-03  9.8232e-03  4.5269e-01  3.2841e-03  4.8828e-03  2.6223e-03  0:15:49 1731
   270  3.6197e-03  1.5420e-03  9.8266e-03  4.4738e-01  3.6239e-03  4.8406e-03  2.5930e-03  0:12:38 1730
   271  4.1180e-03  1.5253e-03  9.8222e-03  4.3980e-01  4.1228e-03  4.7922e-03  2.5696e-03  0:15:52 1729
   272  4.7237e-03  1.5047e-03  9.8077e-03  4.3269e-01  4.7293e-03  4.7539e-03  2.5501e-03  0:12:41 1728
   273  5.4086e-03  1.4878e-03  9.7832e-03  4.2527e-01  5.4151e-03  4.7206e-03  2.5419e-03  0:15:54 1727
   274  6.0623e-03  1.4735e-03  9.7492e-03  4.1741e-01  6.0695e-03  4.6836e-03  2.5315e-03  0:12:43 1726
   275  6.7313e-03  1.4615e-03  9.7074e-03  4.1004e-01  6.7392e-03  4.6410e-03  2.5105e-03  0:15:55 1725

  iter  continuity  x-velocity  y-velocity  z-velocity      energy           k       omega     time/iter
   276  7.3693e-03  1.4504e-03  9.6572e-03  4.0202e-01  7.3778e-03  4.5976e-03  2.4972e-03  0:12:43 1724
   277  8.0215e-03  1.4404e-03  9.6002e-03  3.9303e-01  8.0306e-03  4.5561e-03  2.4791e-03  0:15:55 1723
   278  8.6876e-03  1.4338e-03  9.5392e-03  3.8355e-01  8.6973e-03  4.5172e-03  2.4635e-03  0:12:44 1722
   279  9.3094e-03  1.4279e-03  9.4736e-03  3.7459e-01  9.3196e-03  4.4798e-03  2.4475e-03  0:15:55 1721
   280  9.7798e-03  1.4235e-03  9.4035e-03  3.6611e-01  9.7903e-03  4.4380e-03  2.4286e-03  0:12:43 1720
   281  1.0090e-02  1.4203e-03  9.3332e-03  3.5795e-01  1.0101e-02  4.3967e-03  2.4084e-03  0:15:54 1719
   282  1.0287e-02  1.4145e-03  9.2640e-03  3.4833e-01  1.0297e-02  4.3508e-03  2.3909e-03  0:12:43 1718
   283  1.0345e-02  1.4073e-03  9.1951e-03  3.3637e-01  1.0355e-02  4.3019e-03  2.3708e-03  0:15:53 1717
   284  1.0261e-02  1.4048e-03  9.1254e-03  3.2480e-01  1.0271e-02  4.2584e-03  2.3531e-03  0:12:42 1716
   285  1.0127e-02  1.4089e-03  9.0539e-03  3.1411e-01  1.0136e-02  4.2215e-03  2.3344e-03  0:15:52 1715
   286  9.9608e-03  1.4170e-03  8.9828e-03  3.0429e-01  9.9695e-03  4.1852e-03  2.3081e-03  0:12:41 1714

  iter  continuity  x-velocity  y-velocity  z-velocity      energy           k       omega     time/iter
   287  9.7310e-03  1.4294e-03  8.9133e-03  2.9451e-01  9.7391e-03  4.1507e-03  2.2859e-03  0:15:51 1713
   288  9.4905e-03  1.4510e-03  8.8462e-03  2.8483e-01  9.4981e-03  4.1169e-03  2.2635e-03  0:12:41 1712
   289  9.1845e-03  1.4776e-03  8.7805e-03  2.7704e-01  9.1915e-03  4.0854e-03  2.2442e-03  0:15:50 1711
   290  8.7480e-03  1.5071e-03  8.7159e-03  2.6969e-01  8.7542e-03  4.0571e-03  2.2249e-03  0:12:40 1710
   291  8.2292e-03  1.5450e-03  8.6499e-03  2.6305e-01  8.2346e-03  4.0349e-03  2.2120e-03  0:15:49 1709
   292  7.6577e-03  1.5816e-03  8.5830e-03  2.5693e-01  7.6622e-03  4.0183e-03  2.1938e-03  0:12:39 1708
   293  7.0379e-03  1.6180e-03  8.5137e-03  2.5102e-01  7.0414e-03  4.0031e-03  2.1769e-03  0:15:48 1707
   294  6.4353e-03  1.6519e-03  8.4373e-03  2.4540e-01  6.4378e-03  3.9860e-03  2.1566e-03  0:12:38 1706
   295  5.9682e-03  1.6850e-03  8.3509e-03  2.3974e-01  5.9696e-03  3.9686e-03  2.1386e-03  0:15:47 1705
   296  5.7142e-03  1.7124e-03  8.2533e-03  2.3635e-01  5.7149e-03  3.9531e-03  2.1266e-03  0:12:37 1704
   297  5.5466e-03  1.7333e-03  8.1467e-03  2.3402e-01  5.5465e-03  3.9405e-03  2.1165e-03  0:10:05 1703

  iter  continuity  x-velocity  y-velocity  z-velocity      energy           k       omega     time/iter
   298  5.4101e-03  1.7501e-03  8.0340e-03  2.3304e-01  5.4092e-03  3.9325e-03  2.1085e-03  0:13:45 1702
   299  5.3473e-03  1.7633e-03  7.9156e-03  2.3380e-01  5.3458e-03  3.9230e-03  2.0999e-03  0:10:59 1701
   300  5.2908e-03  1.7760e-03  7.7977e-03  2.3449e-01  5.2887e-03  3.9145e-03  2.0905e-03  0:14:27 1700
   301  5.2497e-03  1.7842e-03  7.6825e-03  2.3801e-01  5.2470e-03  3.9078e-03  2.0779e-03  0:17:13 1699
   302  5.1893e-03  1.7913e-03  7.5741e-03  2.3984e-01  5.1861e-03  3.9062e-03  2.0608e-03  0:13:46 1698
   303  5.0990e-03  1.7974e-03  7.4736e-03  2.4338e-01  5.0953e-03  3.9095e-03  2.0540e-03  0:11:00 1697
   304  4.9501e-03  1.8099e-03  7.3820e-03  2.4675e-01  4.9458e-03  3.9140e-03  2.0446e-03  0:14:27 1696
   305  4.7349e-03  1.8306e-03  7.2980e-03  2.5048e-01  4.7299e-03  3.9217e-03  2.0356e-03  0:11:33 1695
   306  4.4893e-03  1.8604e-03  7.2195e-03  2.5389e-01  4.4835e-03  3.9330e-03  2.0297e-03  0:14:53 1694
   307  4.2875e-03  1.8994e-03  7.1453e-03  2.5695e-01  4.2813e-03  3.9519e-03  2.0211e-03  0:11:54 1693
   308  4.2533e-03  1.9463e-03  7.0742e-03  2.5986e-01  4.2470e-03  3.9705e-03  2.0268e-03  0:15:09 1692

  iter  continuity  x-velocity  y-velocity  z-velocity      energy           k       omega     time/iter
   309  4.4515e-03  1.9994e-03  7.0056e-03  2.6375e-01  4.4460e-03  3.9887e-03  2.0315e-03  0:12:07 1691
   310  4.8544e-03  2.0559e-03  6.9405e-03  2.6881e-01  4.8500e-03  4.0066e-03  2.0345e-03  0:15:19 1690
   311  5.3960e-03  2.1145e-03  6.8810e-03  2.7314e-01  5.3929e-03  4.0269e-03  2.0399e-03  0:12:15 1689
   312  5.9870e-03  2.1717e-03  6.8303e-03  2.7785e-01  5.9850e-03  4.0545e-03  2.0449e-03  0:15:25 1688
   313  6.5488e-03  2.2257e-03  6.7914e-03  2.8351e-01  6.5476e-03  4.0835e-03  2.0545e-03  0:12:20 1687
   314  7.0169e-03  2.2740e-03  6.7667e-03  2.8503e-01  7.0161e-03  4.1107e-03  2.0606e-03  0:15:29 1686
   315  7.3821e-03  2.3156e-03  6.7577e-03  2.8599e-01  7.3815e-03  4.1357e-03  2.0637e-03  0:17:59 1685
   316  7.6944e-03  2.3474e-03  6.7635e-03  2.8759e-01  7.6937e-03  4.1645e-03  2.0703e-03  0:14:23 1684
   317  7.9711e-03  2.3668e-03  6.7794e-03  2.8858e-01  7.9701e-03  4.1989e-03  2.0801e-03  0:17:07 1683
   318  8.2449e-03  2.3710e-03  6.7993e-03  2.8987e-01  8.2437e-03  4.2347e-03  2.0873e-03  0:13:41 1682
   319  8.3290e-03  2.3568e-03  6.8203e-03  2.8982e-01  8.3272e-03  4.2703e-03  2.0940e-03  0:16:32 1681

  iter  continuity  x-velocity  y-velocity  z-velocity      energy           k       omega     time/iter
   320  8.4122e-03  2.3388e-03  6.8452e-03  2.9033e-01  8.4098e-03  4.3175e-03  2.1012e-03  0:13:14 1680
   321  8.5110e-03  2.3151e-03  6.8749e-03  2.8875e-01  8.5081e-03  4.3688e-03  2.1145e-03  0:16:10 1679
   322  8.3612e-03  2.2851e-03  6.9095e-03  2.8797e-01  8.3574e-03  4.4279e-03  2.1276e-03  0:12:56 1678
   323  8.0305e-03  2.2527e-03  6.9314e-03  2.8812e-01  8.0256e-03  4.4970e-03  2.1405e-03  0:15:56 1677
   324  7.6140e-03  2.2140e-03  6.9248e-03  2.8781e-01  7.6080e-03  4.5637e-03  2.1529e-03  0:12:44 1676
   325  7.1387e-03  2.1771e-03  6.9017e-03  2.8655e-01  7.1317e-03  4.6318e-03  2.1687e-03  0:15:46 1675
   326  6.7111e-03  2.1470e-03  6.8788e-03  2.8580e-01  6.7032e-03  4.7079e-03  2.1834e-03  0:12:36 1674
   327  6.3470e-03  2.1221e-03  6.8664e-03  2.8542e-01  6.3385e-03  4.7846e-03  2.1992e-03  0:15:39 1673
   328  6.0568e-03  2.1021e-03  6.8673e-03  2.8367e-01  6.0479e-03  4.8670e-03  2.2214e-03  0:12:31 1672
   329  5.8386e-03  2.0861e-03  6.8812e-03  2.8291e-01  5.8296e-03  4.9540e-03  2.2363e-03  0:15:35 1671
   330  5.6865e-03  2.0733e-03  6.9066e-03  2.8192e-01  5.6775e-03  5.0415e-03  2.2547e-03  0:12:27 1670

  iter  continuity  x-velocity  y-velocity  z-velocity      energy           k       omega     time/iter
   331  5.5868e-03  2.0630e-03  6.9406e-03  2.8086e-01  5.5781e-03  5.1299e-03  2.2709e-03  0:15:31 1669
   332  5.5086e-03  2.0542e-03  6.9803e-03  2.8072e-01  5.5002e-03  5.2204e-03  2.2886e-03  0:12:25 1668
   333  5.4578e-03  2.0463e-03  7.0235e-03  2.8004e-01  5.4497e-03  5.3128e-03  2.3077e-03  0:15:29 1667
   334  5.4363e-03  2.0389e-03  7.0687e-03  2.7999e-01  5.4285e-03  5.4033e-03  2.3202e-03  0:12:22 1666
   335  5.4338e-03  2.0322e-03  7.1147e-03  2.8024e-01  5.4263e-03  5.4914e-03  2.3352e-03  0:15:27 1665
   336  5.4347e-03  2.0257e-03  7.1603e-03  2.8097e-01  5.4275e-03  5.5882e-03  2.3536e-03  0:12:21 1664
   337  5.4326e-03  2.0187e-03  7.2047e-03  2.8174e-01  5.4255e-03  5.6844e-03  2.3684e-03  0:15:25 1663
   338  5.4251e-03  2.0107e-03  7.2476e-03  2.8280e-01  5.4182e-03  5.7821e-03  2.3853e-03  0:12:20 1662
   339  5.4060e-03  2.0022e-03  7.2891e-03  2.8462e-01  5.3992e-03  5.8792e-03  2.4026e-03  0:15:23 1661
   340  5.3688e-03  1.9934e-03  7.3297e-03  2.8523e-01  5.3620e-03  5.9719e-03  2.4221e-03  0:12:18 1660
   341  5.3159e-03  1.9842e-03  7.3688e-03  2.8755e-01  5.3092e-03  6.0600e-03  2.4344e-03  0:15:22 1659

  iter  continuity  x-velocity  y-velocity  z-velocity      energy           k       omega     time/iter
   342  5.2525e-03  1.9747e-03  7.4042e-03  2.8983e-01  5.2459e-03  6.1386e-03  2.4463e-03  0:12:17 1658
   343  5.1824e-03  1.9649e-03  7.4361e-03  2.9146e-01  5.1759e-03  6.2036e-03  2.4648e-03  0:15:21 1657
   344  5.1095e-03  1.9547e-03  7.4647e-03  2.9258e-01  5.1032e-03  6.2647e-03  2.4773e-03  0:17:47 1656
   345  5.0370e-03  1.9443e-03  7.4886e-03  2.9396e-01  5.0308e-03  6.3149e-03  2.4905e-03  0:14:13 1655
   346  4.9677e-03  1.9335e-03  7.5079e-03  2.9671e-01  4.9618e-03  6.3754e-03  2.5036e-03  0:16:53 1654
   347  4.9035e-03  1.9225e-03  7.5228e-03  3.0007e-01  4.8979e-03  6.4182e-03  2.5124e-03  0:13:30 1653
   348  4.8458e-03  1.9114e-03  7.5341e-03  3.0283e-01  4.8405e-03  6.4437e-03  2.5251e-03  0:16:18 1652
   349  4.7941e-03  1.9003e-03  7.5412e-03  3.0733e-01  4.7891e-03  6.4900e-03  2.5390e-03  0:13:02 1651
   350  4.7456e-03  1.8890e-03  7.5418e-03  3.0993e-01  4.7409e-03  6.5353e-03  2.5498e-03  0:15:55 1650
   351  4.7004e-03  1.8775e-03  7.5356e-03  3.1068e-01  4.6960e-03  6.5720e-03  2.5615e-03  0:12:44 1649
   352  4.6575e-03  1.8659e-03  7.5240e-03  3.1282e-01  4.6534e-03  6.6076e-03  2.5709e-03  0:15:40 1648

  iter  continuity  x-velocity  y-velocity  z-velocity      energy           k       omega     time/iter
   353  4.6148e-03  1.8544e-03  7.5058e-03  3.1680e-01  4.6108e-03  6.6320e-03  2.5740e-03  0:12:32 1647
   354  4.5677e-03  1.8428e-03  7.4812e-03  3.1976e-01  4.5640e-03  6.6339e-03  2.5794e-03  0:15:30 1646
   355  4.5184e-03  1.8315e-03  7.4510e-03  3.2182e-01  4.5147e-03  6.6224e-03  2.5834e-03  0:12:24 1645
   356  4.4713e-03  1.8204e-03  7.4155e-03  3.2332e-01  4.4677e-03  6.6290e-03  2.5896e-03  0:15:23 1644
   357  4.4291e-03  1.8095e-03  7.3748e-03  3.2467e-01  4.4255e-03  6.6236e-03  2.5906e-03  0:12:18 1643
   358  4.3912e-03  1.7985e-03  7.3292e-03  3.2768e-01  4.3876e-03  6.6075e-03  2.5880e-03  0:15:19 1642
   359  4.3554e-03  1.7878e-03  7.2802e-03  3.2965e-01  4.3518e-03  6.6041e-03  2.5842e-03  0:12:14 1641
   360  4.3227e-03  1.7778e-03  7.2282e-03  3.2878e-01  4.3190e-03  6.5895e-03  2.5914e-03  0:15:15 1640
   361  4.2925e-03  1.7686e-03  7.1733e-03  3.2799e-01  4.2887e-03  6.5694e-03  2.5931e-03  0:12:12 1639
   362  4.2648e-03  1.7601e-03  7.1165e-03  3.2798e-01  4.2608e-03  6.5282e-03  2.5933e-03  0:15:13 1638
   363  4.2393e-03  1.7524e-03  7.0583e-03  3.2891e-01  4.2351e-03  6.4897e-03  2.5955e-03  0:12:10 1637

  iter  continuity  x-velocity  y-velocity  z-velocity      energy           k       omega     time/iter
   364  4.2148e-03  1.7453e-03  6.9997e-03  3.3210e-01  4.2105e-03  6.4539e-03  2.5928e-03  0:15:11 1636
   365  4.1897e-03  1.7389e-03  6.9423e-03  3.3333e-01  4.1852e-03  6.4217e-03  2.5926e-03  0:12:08 1635
   366  4.1652e-03  1.7342e-03  6.8865e-03  3.3427e-01  4.1605e-03  6.3929e-03  2.5857e-03  0:15:09 1634
   367  4.1418e-03  1.7311e-03  6.8305e-03  3.3604e-01  4.1368e-03  6.3649e-03  2.5813e-03  0:12:07 1633
   368  4.1203e-03  1.7293e-03  6.7754e-03  3.3816e-01  4.1151e-03  6.3384e-03  2.5835e-03  0:15:07 1632
   369  4.1005e-03  1.7290e-03  6.7222e-03  3.4000e-01  4.0949e-03  6.3022e-03  2.5758e-03  0:12:05 1631
   370  4.0822e-03  1.7299e-03  6.6714e-03  3.4179e-01  4.0764e-03  6.2606e-03  2.5681e-03  0:15:06 1630
   371  4.0652e-03  1.7320e-03  6.6238e-03  3.4400e-01  4.0590e-03  6.2320e-03  2.5592e-03  0:12:04 1629
   372  4.0477e-03  1.7352e-03  6.5801e-03  3.4581e-01  4.0412e-03  6.2018e-03  2.5466e-03  0:15:05 1628
   373  4.0290e-03  1.7393e-03  6.5403e-03  3.4793e-01  4.0222e-03  6.1861e-03  2.5452e-03  0:12:03 1627
   374  4.0091e-03  1.7443e-03  6.5055e-03  3.5064e-01  4.0020e-03  6.1648e-03  2.5440e-03  0:15:04 1626

  iter  continuity  x-velocity  y-velocity  z-velocity      energy           k       omega     time/iter
   375  3.9892e-03  1.7497e-03  6.4758e-03  3.5271e-01  3.9818e-03  6.1582e-03  2.5378e-03  0:12:02 1625
   376  3.9704e-03  1.7555e-03  6.4516e-03  3.5459e-01  3.9627e-03  6.1302e-03  2.5294e-03  0:15:02 1624
   377  3.9531e-03  1.7615e-03  6.4332e-03  3.5753e-01  3.9450e-03  6.0844e-03  2.5224e-03  0:12:01 1623
   378  3.9321e-03  1.7678e-03  6.4208e-03  3.6181e-01  3.9237e-03  6.0532e-03  2.5196e-03  0:15:01 1622
   379  3.9100e-03  1.7744e-03  6.4134e-03  3.6240e-01  3.9014e-03  6.0309e-03  2.5167e-03  0:12:01 1621
   380  3.8882e-03  1.7813e-03  6.4115e-03  3.6348e-01  3.8792e-03  6.0127e-03  2.5098e-03  0:15:00 1620
   381  3.8703e-03  1.7884e-03  6.4152e-03  3.6524e-01  3.8610e-03  5.9813e-03  2.5004e-03  0:17:23 1619
   382  3.8524e-03  1.7952e-03  6.4241e-03  3.6679e-01  3.8429e-03  5.9471e-03  2.4973e-03  0:13:54 1618
   383  3.8327e-03  1.8020e-03  6.4385e-03  3.6891e-01  3.8229e-03  5.9066e-03  2.4925e-03  0:16:30 1617
   384  3.8094e-03  1.8086e-03  6.4575e-03  3.7170e-01  3.7993e-03  5.8557e-03  2.4904e-03  0:13:12 1616
   385  3.7830e-03  1.8151e-03  6.4809e-03  3.7464e-01  3.7726e-03  5.8224e-03  2.4878e-03  0:15:56 1615

  iter  continuity  x-velocity  y-velocity  z-velocity      energy           k       omega     time/iter
   386  3.7546e-03  1.8218e-03  6.5081e-03  3.7805e-01  3.7439e-03  5.7835e-03  2.4832e-03  0:12:44 1614
   387  3.7188e-03  1.8289e-03  6.5386e-03  3.8189e-01  3.7078e-03  5.7448e-03  2.4800e-03  0:15:34 1613
   388  3.6802e-03  1.8360e-03  6.5723e-03  3.8589e-01  3.6689e-03  5.7056e-03  2.4789e-03  0:12:27 1612
   389  3.6432e-03  1.8433e-03  6.6088e-03  3.8997e-01  3.6316e-03  5.6722e-03  2.4772e-03  0:15:19 1611
   390  3.6060e-03  1.8507e-03  6.6471e-03  3.9409e-01  3.5942e-03  5.6343e-03  2.4727e-03  0:12:15 1610
   391  3.5711e-03  1.8583e-03  6.6868e-03  3.9833e-01  3.5589e-03  5.5764e-03  2.4696e-03  0:15:09 1609
   392  3.5404e-03  1.8659e-03  6.7265e-03  4.0264e-01  3.5279e-03  5.5175e-03  2.4599e-03  0:12:07 1608
   393  3.5166e-03  1.8738e-03  6.7675e-03  4.0688e-01  3.5039e-03  5.4616e-03  2.4529e-03  0:09:41 1607
   394  3.5056e-03  1.8811e-03  6.8099e-03  4.0878e-01  3.4928e-03  5.4125e-03  2.4485e-03  0:13:06 1606
   395  3.4645e-03  1.8878e-03  6.8532e-03  4.0954e-01  3.4514e-03  5.3608e-03  2.4365e-03  0:10:28 1605
   396  3.4080e-03  1.8966e-03  6.8943e-03  4.0796e-01  3.3945e-03  5.2973e-03  2.4233e-03  0:13:43 1604

  iter  continuity  x-velocity  y-velocity  z-velocity      energy           k       omega     time/iter
   397  3.3646e-03  1.9052e-03  6.9311e-03  4.0733e-01  3.3507e-03  5.2461e-03  2.4082e-03  0:10:58 1603
   398  3.3327e-03  1.9134e-03  6.9664e-03  4.0653e-01  3.3184e-03  5.1936e-03  2.3929e-03  0:14:07 1602
   399  3.3115e-03  1.9213e-03  6.9992e-03  4.0526e-01  3.2969e-03  5.1415e-03  2.3765e-03  0:11:17 1601
   400  3.3164e-03  1.9289e-03  7.0303e-03  4.0386e-01  3.3015e-03  5.0830e-03  2.3629e-03  0:14:21 1600
   401  3.3225e-03  1.9370e-03  7.0588e-03  4.0215e-01  3.3074e-03  5.0234e-03  2.3498e-03  0:11:28 1599
   402  3.2955e-03  1.9455e-03  7.0873e-03  3.9992e-01  3.2800e-03  4.9642e-03  2.3358e-03  0:14:30 1598
   403  3.2612e-03  1.9538e-03  7.1148e-03  3.9764e-01  3.2452e-03  4.9039e-03  2.3220e-03  0:11:36 1597
   404  3.2313e-03  1.9614e-03  7.1389e-03  3.9521e-01  3.2148e-03  4.8598e-03  2.3153e-03  0:14:35 1596
   405  3.1861e-03  1.9689e-03  7.1592e-03  3.9252e-01  3.1690e-03  4.8167e-03  2.3039e-03  0:11:40 1595
   406  3.1390e-03  1.9759e-03  7.1759e-03  3.8945e-01  3.1212e-03  4.7703e-03  2.2926e-03  0:14:38 1594
   407  3.0926e-03  1.9822e-03  7.1891e-03  3.8532e-01  3.0740e-03  4.7248e-03  2.2831e-03  0:11:42 1593

  iter  continuity  x-velocity  y-velocity  z-velocity      energy           k       omega     time/iter
   408  3.0200e-03  1.9886e-03  7.1974e-03  3.8034e-01  3.0004e-03  4.6754e-03  2.2647e-03  0:14:40 1592
   409  2.9491e-03  1.9950e-03  7.2062e-03  3.7528e-01  2.9284e-03  4.6330e-03  2.2493e-03  0:11:43 1591
   410  2.9118e-03  2.0011e-03  7.2139e-03  3.7132e-01  2.8903e-03  4.5830e-03  2.2296e-03  0:14:40 1590
   411  2.8807e-03  2.0071e-03  7.2200e-03  3.6793e-01  2.8583e-03  4.5382e-03  2.2143e-03  0:11:44 1589
   412  2.8606e-03  2.0131e-03  7.2238e-03  3.6490e-01  2.8374e-03  4.4880e-03  2.2050e-03  0:14:40 1588
   413  2.8119e-03  2.0197e-03  7.2255e-03  3.6162e-01  2.7877e-03  4.4445e-03  2.1910e-03  0:11:44 1587
   414  2.7693e-03  2.0258e-03  7.2244e-03  3.5709e-01  2.7440e-03  4.4140e-03  2.1831e-03  0:14:40 1586
   415  2.7320e-03  2.0313e-03  7.2213e-03  3.5210e-01  2.7057e-03  4.3873e-03  2.1756e-03  0:11:43 1585
   416  2.7066e-03  2.0363e-03  7.2183e-03  3.4635e-01  2.6794e-03  4.3616e-03  2.1678e-03  0:14:39 1584
   417  2.6803e-03  2.0409e-03  7.2125e-03  3.4004e-01  2.6521e-03  4.3368e-03  2.1582e-03  0:11:43 1583
   418  2.6643e-03  2.0450e-03  7.2037e-03  3.3355e-01  2.6353e-03  4.3088e-03  2.1528e-03  0:14:38 1582

  iter  continuity  x-velocity  y-velocity  z-velocity      energy           k       omega     time/iter
   419  2.6560e-03  2.0485e-03  7.1920e-03  3.2649e-01  2.6264e-03  4.2865e-03  2.1480e-03  0:11:42 1581
   420  2.6571e-03  2.0512e-03  7.1781e-03  3.1946e-01  2.6269e-03  4.2581e-03  2.1428e-03  0:14:37 1580
   421  2.6683e-03  2.0535e-03  7.1621e-03  3.1256e-01  2.6378e-03  4.2311e-03  2.1431e-03  0:11:42 1579
   422  2.6925e-03  2.0556e-03  7.1429e-03  3.0590e-01  2.6618e-03  4.2135e-03  2.1331e-03  0:09:21 1578
   423  2.7178e-03  2.0569e-03  7.1205e-03  2.9906e-01  2.6869e-03  4.1993e-03  2.1284e-03  0:12:44 1577
   424  2.7418e-03  2.0577e-03  7.0952e-03  2.9244e-01  2.7109e-03  4.1895e-03  2.1235e-03  0:10:11 1576
   425  2.7613e-03  2.0580e-03  7.0676e-03  2.8599e-01  2.7303e-03  4.1782e-03  2.1143e-03  0:13:23 1575
   426  2.7962e-03  2.0574e-03  7.0382e-03  2.7986e-01  2.7652e-03  4.1736e-03  2.1145e-03  0:10:42 1574
   427  2.8575e-03  2.0558e-03  7.0073e-03  2.7447e-01  2.8271e-03  4.1683e-03  2.1116e-03  0:13:48 1573
   428  2.9273e-03  2.0535e-03  6.9752e-03  2.7059e-01  2.8974e-03  4.1680e-03  2.1088e-03  0:11:02 1572
   429  3.0026e-03  2.0508e-03  6.9417e-03  2.6766e-01  2.9734e-03  4.1748e-03  2.1089e-03  0:14:03 1571

  iter  continuity  x-velocity  y-velocity  z-velocity      energy           k       omega     time/iter
   430  3.0938e-03  2.0478e-03  6.9067e-03  2.6634e-01  3.0655e-03  4.1726e-03  2.1096e-03  0:11:14 1570
   431  3.2052e-03  2.0446e-03  6.8683e-03  2.6746e-01  3.1779e-03  4.1705e-03  2.1072e-03  0:14:13 1569
   432  3.3314e-03  2.0411e-03  6.8271e-03  2.7090e-01  3.3052e-03  4.1755e-03  2.1078e-03  0:11:22 1568
   433  3.4701e-03  2.0374e-03  6.7843e-03  2.7569e-01  3.4450e-03  4.1835e-03  2.1115e-03  0:14:19 1567
   434  3.6185e-03  2.0338e-03  6.7417e-03  2.8080e-01  3.5945e-03  4.1942e-03  2.1164e-03  0:11:26 1566
   435  3.7742e-03  2.0301e-03  6.6992e-03  2.8636e-01  3.7514e-03  4.2050e-03  2.1157e-03  0:14:22 1565
   436  3.9320e-03  2.0266e-03  6.6557e-03  2.9185e-01  3.9103e-03  4.2155e-03  2.1160e-03  0:11:29 1564
   437  4.0885e-03  2.0238e-03  6.6118e-03  2.9576e-01  4.0679e-03  4.2249e-03  2.1149e-03  0:14:23 1563
   438  4.2416e-03  2.0215e-03  6.5660e-03  2.9867e-01  4.2219e-03  4.2378e-03  2.1199e-03  0:16:43 1562
   439  4.3908e-03  2.0200e-03  6.5200e-03  3.0052e-01  4.3720e-03  4.2404e-03  2.1175e-03  0:13:22 1561
   440  4.5348e-03  2.0193e-03  6.4736e-03  3.0110e-01  4.5168e-03  4.2474e-03  2.1164e-03  0:15:53 1560

  iter  continuity  x-velocity  y-velocity  z-velocity      energy           k       omega     time/iter
   441  4.6763e-03  2.0194e-03  6.4270e-03  3.0141e-01  4.6591e-03  4.2526e-03  2.1100e-03  0:12:42 1559
   442  4.8126e-03  2.0204e-03  6.3797e-03  3.0102e-01  4.7962e-03  4.2588e-03  2.1153e-03  0:15:21 1558
   443  4.9358e-03  2.0222e-03  6.3322e-03  2.9954e-01  4.9200e-03  4.2744e-03  2.1217e-03  0:12:16 1557
   444  5.0524e-03  2.0248e-03  6.2824e-03  2.9780e-01  5.0373e-03  4.2861e-03  2.1219e-03  0:09:48 1556
   445  5.1571e-03  2.0285e-03  6.2310e-03  2.9507e-01  5.1426e-03  4.2979e-03  2.1193e-03  0:13:01 1555
   446  5.2593e-03  2.0330e-03  6.1791e-03  2.9132e-01  5.2453e-03  4.3129e-03  2.1247e-03  0:10:25 1554
   447  5.3575e-03  2.0382e-03  6.1258e-03  2.8755e-01  5.3440e-03  4.3261e-03  2.1291e-03  0:13:30 1553
   448  5.4442e-03  2.0438e-03  6.0713e-03  2.8332e-01  5.4312e-03  4.3411e-03  2.1314e-03  0:10:48 1552
   449  5.5197e-03  2.0498e-03  6.0162e-03  2.8055e-01  5.5072e-03  4.3553e-03  2.1319e-03  0:13:48 1551
   450  5.5926e-03  2.0567e-03  5.9597e-03  2.7858e-01  5.5805e-03  4.3675e-03  2.1338e-03  0:11:02 1550
   451  5.6593e-03  2.0641e-03  5.9020e-03  2.7634e-01  5.6477e-03  4.3818e-03  2.1362e-03  0:13:59 1549

  iter  continuity  x-velocity  y-velocity  z-velocity      energy           k       omega     time/iter
   452  5.7158e-03  2.0719e-03  5.8438e-03  2.7472e-01  5.7046e-03  4.3979e-03  2.1392e-03  0:11:11 1548
   453  5.7603e-03  2.0801e-03  5.7860e-03  2.7342e-01  5.7495e-03  4.4121e-03  2.1453e-03  0:14:06 1547
   454  5.7991e-03  2.0883e-03  5.7301e-03  2.7223e-01  5.7886e-03  4.4247e-03  2.1545e-03  0:11:16 1546
   455  5.8354e-03  2.0966e-03  5.6755e-03  2.7037e-01  5.8252e-03  4.4337e-03  2.1659e-03  0:14:10 1545
   456  5.8705e-03  2.1051e-03  5.6232e-03  2.6902e-01  5.8607e-03  4.4450e-03  2.1733e-03  0:11:19 1544
   457  5.9040e-03  2.1136e-03  5.5740e-03  2.6805e-01  5.8945e-03  4.4571e-03  2.1776e-03  0:14:12 1543
   458  5.9357e-03  2.1221e-03  5.5286e-03  2.6690e-01  5.9266e-03  4.4655e-03  2.1820e-03  0:11:21 1542
   459  5.9695e-03  2.1307e-03  5.4854e-03  2.6815e-01  5.9606e-03  4.4760e-03  2.1874e-03  0:14:13 1541
   460  5.9989e-03  2.1393e-03  5.4457e-03  2.7208e-01  5.9904e-03  4.4845e-03  2.1876e-03  0:11:22 1540
   461  6.0206e-03  2.1478e-03  5.4104e-03  2.7348e-01  6.0125e-03  4.4957e-03  2.1870e-03  0:14:13 1539
   462  6.0337e-03  2.1563e-03  5.3799e-03  2.7297e-01  6.0257e-03  4.5099e-03  2.1860e-03  0:11:22 1538

  iter  continuity  x-velocity  y-velocity  z-velocity      energy           k       omega     time/iter
   463  6.0389e-03  2.1649e-03  5.3544e-03  2.7259e-01  6.0313e-03  4.5315e-03  2.1841e-03  0:14:12 1537
   464  6.0306e-03  2.1735e-03  5.3341e-03  2.7284e-01  6.0232e-03  4.5538e-03  2.1810e-03  0:11:21 1536
   465  6.0179e-03  2.1818e-03  5.3199e-03  2.7146e-01  6.0107e-03  4.5760e-03  2.1749e-03  0:14:12 1535
   466  6.0028e-03  2.1899e-03  5.3123e-03  2.7182e-01  5.9959e-03  4.6014e-03  2.1745e-03  0:11:21 1534
   467  5.9808e-03  2.1978e-03  5.3105e-03  2.7281e-01  5.9742e-03  4.6332e-03  2.1749e-03  0:14:11 1533
   468  5.9490e-03  2.2054e-03  5.3143e-03  2.7426e-01  5.9426e-03  4.6655e-03  2.1739e-03  0:11:20 1532
   469  5.9043e-03  2.2128e-03  5.3240e-03  2.7659e-01  5.8981e-03  4.6986e-03  2.1784e-03  0:14:10 1531
   470  5.8452e-03  2.2199e-03  5.3404e-03  2.7875e-01  5.8392e-03  4.7313e-03  2.1793e-03  0:11:20 1530
   471  5.7698e-03  2.2266e-03  5.3628e-03  2.8020e-01  5.7639e-03  4.7678e-03  2.1760e-03  0:14:09 1529
   472  5.6813e-03  2.2327e-03  5.3911e-03  2.8174e-01  5.6755e-03  4.8117e-03  2.1664e-03  0:11:19 1528
   473  5.5802e-03  2.2384e-03  5.4244e-03  2.8338e-01  5.5744e-03  4.8571e-03  2.1594e-03  0:14:08 1527

  iter  continuity  x-velocity  y-velocity  z-velocity      energy           k       omega     time/iter
   474  5.4659e-03  2.2436e-03  5.4615e-03  2.8406e-01  5.4601e-03  4.9030e-03  2.1576e-03  0:11:18 1526
   475  5.3393e-03  2.2484e-03  5.5008e-03  2.8713e-01  5.3335e-03  4.9564e-03  2.1530e-03  0:14:07 1525
   476  5.2031e-03  2.2525e-03  5.5415e-03  2.8770e-01  5.1973e-03  5.0008e-03  2.1500e-03  0:11:17 1524
   477  5.0588e-03  2.2559e-03  5.5834e-03  2.9003e-01  5.0530e-03  5.0454e-03  2.1458e-03  0:14:06 1523
   478  4.8989e-03  2.2588e-03  5.6255e-03  2.9121e-01  4.8931e-03  5.0907e-03  2.1449e-03  0:11:16 1522
   479  4.7417e-03  2.2614e-03  5.6683e-03  2.9178e-01  4.7358e-03  5.1370e-03  2.1426e-03  0:14:05 1521
   480  4.5806e-03  2.2635e-03  5.7128e-03  2.9231e-01  4.5746e-03  5.1925e-03  2.1392e-03  0:11:16 1520
   481  4.4150e-03  2.2652e-03  5.7585e-03  2.9298e-01  4.4090e-03  5.2419e-03  2.1354e-03  0:14:04 1519
   482  4.2469e-03  2.2667e-03  5.8062e-03  2.9426e-01  4.2408e-03  5.2881e-03  2.1332e-03  0:16:18 1518
   483  4.0746e-03  2.2677e-03  5.8564e-03  2.9683e-01  4.0684e-03  5.3366e-03  2.1313e-03  0:13:02 1517
   484  3.8988e-03  2.2682e-03  5.9084e-03  2.9871e-01  3.8924e-03  5.3850e-03  2.1262e-03  0:10:25 1516

  iter  continuity  x-velocity  y-velocity  z-velocity      energy           k       omega     time/iter
   485  3.7263e-03  2.2684e-03  5.9619e-03  3.0133e-01  3.7197e-03  5.4319e-03  2.1185e-03  0:13:23 1515
   486  3.5538e-03  2.2684e-03  6.0178e-03  3.0356e-01  3.5471e-03  5.4798e-03  2.1136e-03  0:10:42 1514
   487  3.3944e-03  2.2682e-03  6.0766e-03  3.0517e-01  3.3876e-03  5.5344e-03  2.1041e-03  0:13:36 1513
   488  3.2468e-03  2.2677e-03  6.1382e-03  3.0818e-01  3.2399e-03  5.5878e-03  2.0970e-03  0:10:52 1512
   489  3.0999e-03  2.2669e-03  6.2025e-03  3.1139e-01  3.0928e-03  5.6306e-03  2.0952e-03  0:13:44 1511
   490  2.9656e-03  2.2659e-03  6.2696e-03  3.1365e-01  2.9585e-03  5.6722e-03  2.0976e-03  0:10:58 1510
   491  2.8423e-03  2.2648e-03  6.3386e-03  3.1705e-01  2.8351e-03  5.7114e-03  2.0991e-03  0:13:48 1509
   492  2.7311e-03  2.2633e-03  6.4100e-03  3.2005e-01  2.7239e-03  5.7486e-03  2.1004e-03  0:11:02 1508
   493  2.6328e-03  2.2619e-03  6.4837e-03  3.2117e-01  2.6257e-03  5.7776e-03  2.1011e-03  0:13:51 1507
   494  2.5534e-03  2.2601e-03  6.5602e-03  3.2259e-01  2.5464e-03  5.8058e-03  2.1016e-03  0:11:04 1506
   495  2.5045e-03  2.2581e-03  6.6390e-03  3.2418e-01  2.4977e-03  5.8237e-03  2.1015e-03  0:13:52 1505

  iter  continuity  x-velocity  y-velocity  z-velocity      energy           k       omega     time/iter
   496  2.4228e-03  2.2561e-03  6.7182e-03  3.2608e-01  2.4160e-03  5.8353e-03  2.0966e-03  0:11:05 1504
   497  2.3464e-03  2.2545e-03  6.7964e-03  3.2676e-01  2.3396e-03  5.8484e-03  2.0944e-03  0:13:52 1503
   498  2.2908e-03  2.2531e-03  6.8740e-03  3.2970e-01  2.2843e-03  5.8588e-03  2.0937e-03  0:11:05 1502
   499  2.2533e-03  2.2515e-03  6.9512e-03  3.3321e-01  2.2470e-03  5.8679e-03  2.0891e-03  0:13:52 1501
   500  2.2269e-03  2.2500e-03  7.0280e-03  3.3773e-01  2.2210e-03  5.8717e-03  2.0817e-03  0:11:05 1500
   501  2.2147e-03  2.2488e-03  7.1034e-03  3.4200e-01  2.2091e-03  5.8695e-03  2.0805e-03  0:13:52 1499
   502  2.2148e-03  2.2479e-03  7.1774e-03  3.4575e-01  2.2095e-03  5.8667e-03  2.0778e-03  0:11:05 1498
   503  2.2260e-03  2.2472e-03  7.2503e-03  3.4716e-01  2.2211e-03  5.8705e-03  2.0733e-03  0:13:51 1497
   504  2.2552e-03  2.2464e-03  7.3219e-03  3.4800e-01  2.2506e-03  5.8784e-03  2.0678e-03  0:11:04 1496
   505  2.2915e-03  2.2455e-03  7.3919e-03  3.5035e-01  2.2873e-03  5.8899e-03  2.0668e-03  0:13:50 1495
   506  2.3275e-03  2.2445e-03  7.4595e-03  3.5277e-01  2.3236e-03  5.9080e-03  2.0665e-03  0:11:04 1494

  iter  continuity  x-velocity  y-velocity  z-velocity      energy           k       omega     time/iter
   507  2.3702e-03  2.2435e-03  7.5253e-03  3.5066e-01  2.3666e-03  5.9228e-03  2.0653e-03  0:13:49 1493
   508  2.4189e-03  2.2426e-03  7.5894e-03  3.4868e-01  2.4155e-03  5.9397e-03  2.0614e-03  0:11:03 1492
   509  2.4714e-03  2.2418e-03  7.6521e-03  3.4766e-01  2.4682e-03  5.9555e-03  2.0573e-03  0:13:48 1491
   510  2.5275e-03  2.2411e-03  7.7141e-03  3.4954e-01  2.5245e-03  5.9652e-03  2.0531e-03  0:11:02 1490
   511  2.5880e-03  2.2404e-03  7.7756e-03  3.5082e-01  2.5851e-03  5.9746e-03  2.0492e-03  0:13:47 1489
   512  2.6501e-03  2.2398e-03  7.8370e-03  3.5093e-01  2.6474e-03  5.9836e-03  2.0454e-03  0:11:01 1488
   513  2.7094e-03  2.2394e-03  7.8991e-03  3.5089e-01  2.7067e-03  5.9832e-03  2.0436e-03  0:13:46 1487
   514  2.7685e-03  2.2392e-03  7.9615e-03  3.5020e-01  2.7659e-03  5.9858e-03  2.0445e-03  0:11:00 1486
   515  2.8277e-03  2.2393e-03  8.0243e-03  3.5255e-01  2.8252e-03  5.9935e-03  2.0444e-03  0:13:45 1485
   516  2.8841e-03  2.2396e-03  8.0876e-03  3.5365e-01  2.8816e-03  5.9996e-03  2.0450e-03  0:11:00 1484
   517  2.9375e-03  2.2404e-03  8.1518e-03  3.5387e-01  2.9349e-03  6.0021e-03  2.0479e-03  0:13:44 1483

  iter  continuity  x-velocity  y-velocity  z-velocity      energy           k       omega     time/iter
   518  2.9883e-03  2.2415e-03  8.2176e-03  3.5433e-01  2.9857e-03  6.0133e-03  2.0467e-03  0:10:59 1482
   519  3.0378e-03  2.2432e-03  8.2847e-03  3.5427e-01  3.0352e-03  6.0326e-03  2.0484e-03  0:13:43 1481
   520  3.1142e-03  2.2454e-03  8.3529e-03  3.5676e-01  3.1115e-03  6.0575e-03  2.0493e-03  0:10:58 1480
   521  3.1499e-03  2.2484e-03  8.4221e-03  3.5843e-01  3.1472e-03  6.0813e-03  2.0586e-03  0:13:42 1479
   522  3.1923e-03  2.2521e-03  8.4920e-03  3.5992e-01  3.1895e-03  6.0955e-03  2.0556e-03  0:10:57 1478
   523  3.2368e-03  2.2566e-03  8.5623e-03  3.6189e-01  3.2340e-03  6.1093e-03  2.0531e-03  0:13:41 1477
   524  3.3102e-03  2.2621e-03  8.6329e-03  3.6412e-01  3.3073e-03  6.1255e-03  2.0518e-03  0:10:56 1476
   525  3.3515e-03  2.2684e-03  8.7041e-03  3.6775e-01  3.3485e-03  6.1388e-03  2.0488e-03  0:08:44 1475
   526  3.4008e-03  2.2757e-03  8.7766e-03  3.7244e-01  3.3977e-03  6.1600e-03  2.0458e-03  0:11:54 1474
   527  3.4553e-03  2.2840e-03  8.8497e-03  3.7796e-01  3.4522e-03  6.1808e-03  2.0420e-03  0:09:31 1473
   528  3.5163e-03  2.2933e-03  8.9237e-03  3.8410e-01  3.5130e-03  6.1949e-03  2.0417e-03  0:12:31 1472

  iter  continuity  x-velocity  y-velocity  z-velocity      energy           k       omega     time/iter
   529  3.6047e-03  2.3037e-03  8.9984e-03  3.9045e-01  3.6013e-03  6.2022e-03  2.0444e-03  0:14:54 1471
   530  3.6631e-03  2.3152e-03  9.0735e-03  3.9655e-01  3.6596e-03  6.2092e-03  2.0485e-03  0:11:55 1470
   531  3.7261e-03  2.3277e-03  9.1493e-03  4.0366e-01  3.7226e-03  6.2190e-03  2.0522e-03  0:09:32 1469
   532  3.7939e-03  2.3411e-03  9.2262e-03  4.1013e-01  3.7903e-03  6.2349e-03  2.0539e-03  0:12:31 1468
   533  3.8668e-03  2.3553e-03  9.3044e-03  4.1777e-01  3.8629e-03  6.2511e-03  2.0597e-03  0:10:00 1467
   534  3.9434e-03  2.3701e-03  9.3833e-03  4.2689e-01  3.9395e-03  6.2745e-03  2.0642e-03  0:12:53 1466
   535  4.0409e-03  2.3854e-03  9.4631e-03  4.3647e-01  4.0368e-03  6.2991e-03  2.0664e-03  0:10:18 1465
   536  4.1053e-03  2.4010e-03  9.5438e-03  4.4601e-01  4.1011e-03  6.3283e-03  2.0880e-03  0:13:07 1464
   537  4.1633e-03  2.4166e-03  9.6249e-03  4.5552e-01  4.1589e-03  6.3570e-03  2.0889e-03  0:10:29 1463
   538  4.2154e-03  2.4323e-03  9.7067e-03  4.6399e-01  4.2110e-03  6.3956e-03  2.0893e-03  0:13:15 1462
   539  4.2774e-03  2.4478e-03  9.7886e-03  4.7197e-01  4.2727e-03  6.4314e-03  2.0961e-03  0:10:36 1461

  iter  continuity  x-velocity  y-velocity  z-velocity      energy           k       omega     time/iter
   540  4.3156e-03  2.4626e-03  9.8685e-03  4.7963e-01  4.3108e-03  6.4624e-03  2.1006e-03  0:13:20 1460
   541  4.3540e-03  2.4766e-03  9.9469e-03  4.8887e-01  4.3491e-03  6.4931e-03  2.1080e-03  0:10:40 1459
   542  4.3852e-03  2.4906e-03  1.0026e-02  4.9503e-01  4.3801e-03  6.5244e-03  2.1144e-03  0:13:23 1458
   543  4.4099e-03  2.5046e-03  1.0104e-02  4.9966e-01  4.4045e-03  6.5555e-03  2.1182e-03  0:10:42 1457
   544  4.4293e-03  2.5185e-03  1.0183e-02  5.0481e-01  4.4238e-03  6.5949e-03  2.1298e-03  0:13:24 1456
   545  4.4442e-03  2.5322e-03  1.0260e-02  5.0891e-01  4.4384e-03  6.6287e-03  2.1377e-03  0:10:43 1455
   546  4.4551e-03  2.5458e-03  1.0337e-02  5.1120e-01  4.4490e-03  6.6533e-03  2.1441e-03  0:13:25 1454
   547  4.4642e-03  2.5591e-03  1.0413e-02  5.1330e-01  4.4579e-03  6.6714e-03  2.1522e-03  0:10:44 1453
   548  4.4730e-03  2.5722e-03  1.0487e-02  5.1485e-01  4.4665e-03  6.6892e-03  2.1680e-03  0:08:34 1452
   549  4.4828e-03  2.5848e-03  1.0560e-02  5.1579e-01  4.4760e-03  6.7057e-03  2.1822e-03  0:11:41 1451
   550  4.4937e-03  2.5969e-03  1.0633e-02  5.1564e-01  4.4866e-03  6.7323e-03  2.2007e-03  0:09:21 1450

  iter  continuity  x-velocity  y-velocity  z-velocity      energy           k       omega     time/iter
   551  4.5227e-03  2.6088e-03  1.0705e-02  5.1515e-01  4.5153e-03  6.7513e-03  2.2097e-03  0:12:18 1449
   552  4.5242e-03  2.6201e-03  1.0777e-02  5.1529e-01  4.5166e-03  6.7641e-03  2.2234e-03  0:09:50 1448
   553  4.5355e-03  2.6310e-03  1.0850e-02  5.1586e-01  4.5275e-03  6.7770e-03  2.2305e-03  0:12:41 1447
   554  4.5492e-03  2.6415e-03  1.0923e-02  5.1612e-01  4.5409e-03  6.7949e-03  2.2334e-03  0:10:09 1446
   555  4.5643e-03  2.6508e-03  1.0997e-02  5.1714e-01  4.5557e-03  6.8074e-03  2.2419e-03  0:12:55 1445
   556  4.5806e-03  2.6596e-03  1.1073e-02  5.1899e-01  4.5717e-03  6.8206e-03  2.2447e-03  0:10:20 1444
   557  4.5985e-03  2.6681e-03  1.1150e-02  5.2045e-01  4.5893e-03  6.8410e-03  2.2433e-03  0:13:04 1443
   558  4.6181e-03  2.6760e-03  1.1228e-02  5.2361e-01  4.6086e-03  6.8673e-03  2.2515e-03  0:10:27 1442
   559  4.6370e-03  2.6834e-03  1.1307e-02  5.2694e-01  4.6271e-03  6.8855e-03  2.2641e-03  0:13:09 1441
   560  4.6566e-03  2.6905e-03  1.1388e-02  5.2967e-01  4.6464e-03  6.9018e-03  2.2794e-03  0:10:31 1440
   561  4.6779e-03  2.6972e-03  1.1470e-02  5.3192e-01  4.6674e-03  6.9096e-03  2.3022e-03  0:13:12 1439

  iter  continuity  x-velocity  y-velocity  z-velocity      energy           k       omega     time/iter
   562  4.7165e-03  2.7033e-03  1.1552e-02  5.3307e-01  4.7056e-03  6.9203e-03  2.3210e-03  0:10:33 1438
   563  4.7338e-03  2.7090e-03  1.1636e-02  5.3499e-01  4.7227e-03  6.9352e-03  2.3317e-03  0:13:14 1437
   564  4.7520e-03  2.7140e-03  1.1720e-02  5.3769e-01  4.7406e-03  6.9512e-03  2.3402e-03  0:10:35 1436
   565  4.7745e-03  2.7182e-03  1.1804e-02  5.3963e-01  4.7628e-03  6.9618e-03  2.3445e-03  0:13:14 1435
   566  4.8006e-03  2.7215e-03  1.1890e-02  5.4069e-01  4.7887e-03  6.9553e-03  2.3424e-03  0:10:35 1434
   567  4.8280e-03  2.7240e-03  1.1976e-02  5.4039e-01  4.8158e-03  6.9480e-03  2.3424e-03  0:13:14 1433
   568  4.8710e-03  2.7259e-03  1.2062e-02  5.4029e-01  4.8585e-03  6.9529e-03  2.3433e-03  0:10:35 1432
   569  4.8927e-03  2.7274e-03  1.2147e-02  5.3856e-01  4.8800e-03  6.9580e-03  2.3482e-03  0:13:14 1431
   570  4.9167e-03  2.7284e-03  1.2231e-02  5.3676e-01  4.9038e-03  6.9651e-03  2.3552e-03  0:10:35 1430
   571  4.9418e-03  2.7287e-03  1.2313e-02  5.3456e-01  4.9286e-03  6.9681e-03  2.3608e-03  0:13:13 1429
   572  4.9690e-03  2.7281e-03  1.2393e-02  5.3317e-01  4.9556e-03  6.9741e-03  2.3643e-03  0:10:34 1428

  iter  continuity  x-velocity  y-velocity  z-velocity      energy           k       omega     time/iter
   573  4.9937e-03  2.7272e-03  1.2470e-02  5.3148e-01  4.9800e-03  6.9759e-03  2.3702e-03  0:13:12 1427
   574  5.0200e-03  2.7258e-03  1.2544e-02  5.3128e-01  5.0060e-03  6.9755e-03  2.3770e-03  0:10:33 1426
   575  5.0397e-03  2.7237e-03  1.2615e-02  5.3105e-01  5.0255e-03  6.9696e-03  2.3854e-03  0:13:11 1425
   576  5.0575e-03  2.7211e-03  1.2682e-02  5.3068e-01  5.0431e-03  6.9660e-03  2.3934e-03  0:10:33 1424
   577  5.0725e-03  2.7180e-03  1.2747e-02  5.3166e-01  5.0579e-03  6.9679e-03  2.3979e-03  0:13:10 1423
   578  5.0892e-03  2.7135e-03  1.2809e-02  5.3398e-01  5.0744e-03  6.9792e-03  2.4031e-03  0:10:32 1422
   579  5.1087e-03  2.7080e-03  1.2868e-02  5.3765e-01  5.0937e-03  6.9836e-03  2.4120e-03  0:13:09 1421
   580  5.1329e-03  2.7014e-03  1.2924e-02  5.4143e-01  5.1178e-03  6.9866e-03  2.4190e-03  0:10:31 1420
   581  5.1607e-03  2.6938e-03  1.2980e-02  5.4449e-01  5.1455e-03  6.9861e-03  2.4248e-03  0:13:08 1419
   582  5.1883e-03  2.6847e-03  1.3035e-02  5.4417e-01  5.1729e-03  6.9767e-03  2.4312e-03  0:10:30 1418
   583  5.2160e-03  2.6742e-03  1.3091e-02  5.4296e-01  5.2004e-03  6.9584e-03  2.4260e-03  0:13:07 1417

  iter  continuity  x-velocity  y-velocity  z-velocity      energy           k       omega     time/iter
   584  5.2433e-03  2.6623e-03  1.3146e-02  5.4372e-01  5.2276e-03  6.9387e-03  2.4237e-03  0:10:29 1416
   585  5.2732e-03  2.6486e-03  1.3202e-02  5.4763e-01  5.2574e-03  6.9318e-03  2.4282e-03  0:13:06 1415
   586  5.3045e-03  2.6338e-03  1.3258e-02  5.5486e-01  5.2886e-03  6.9267e-03  2.4368e-03  0:10:28 1414
   587  5.3392e-03  2.6192e-03  1.3314e-02  5.6118e-01  5.3232e-03  6.9160e-03  2.4420e-03  0:13:05 1413
   588  5.3740e-03  2.6044e-03  1.3370e-02  5.6675e-01  5.3579e-03  6.9091e-03  2.4420e-03  0:10:28 1412
   589  5.4077e-03  2.5894e-03  1.3428e-02  5.7204e-01  5.3915e-03  6.8989e-03  2.4511e-03  0:13:04 1411
   590  5.4452e-03  2.5742e-03  1.3485e-02  5.8240e-01  5.4289e-03  6.8931e-03  2.4637e-03  0:10:27 1410
   591  5.4809e-03  2.5568e-03  1.3543e-02  5.9426e-01  5.4645e-03  6.8864e-03  2.4708e-03  0:13:03 1409
   592  5.5107e-03  2.5386e-03  1.3601e-02  6.0402e-01  5.4944e-03  6.8776e-03  2.4715e-03  0:10:26 1408
   593  5.5363e-03  2.5212e-03  1.3659e-02  6.1181e-01  5.5199e-03  6.8588e-03  2.4810e-03  0:08:20 1407
   594  5.5556e-03  2.5047e-03  1.3718e-02  6.1944e-01  5.5391e-03  6.8398e-03  2.4985e-03  0:11:21 1406

  iter  continuity  x-velocity  y-velocity  z-velocity      energy           k       omega     time/iter
   595  5.5734e-03  2.4889e-03  1.3777e-02  6.2885e-01  5.5569e-03  6.8265e-03  2.5117e-03  0:09:05 1405
   596  5.5963e-03  2.4738e-03  1.3836e-02  6.3899e-01  5.5798e-03  6.8267e-03  2.5186e-03  0:11:56 1404
   597  5.6264e-03  2.4597e-03  1.3894e-02  6.4893e-01  5.6100e-03  6.8258e-03  2.5200e-03  0:09:32 1403
   598  5.6555e-03  2.4460e-03  1.3952e-02  6.5585e-01  5.6391e-03  6.8002e-03  2.5354e-03  0:12:18 1402
   599  5.6851e-03  2.4326e-03  1.4008e-02  6.6129e-01  5.6687e-03  6.7723e-03  2.5513e-03  0:09:50 1401
   600  5.7232e-03  2.4198e-03  1.4063e-02  6.6819e-01  5.7068e-03  6.7598e-03  2.5560e-03  0:12:32 1400
   601  5.7688e-03  2.4086e-03  1.4117e-02  6.7179e-01  5.7525e-03  6.7489e-03  2.5594e-03  0:10:01 1399
   602  5.8045e-03  2.3977e-03  1.4169e-02  6.7701e-01  5.7883e-03  6.7364e-03  2.5675e-03  0:12:40 1398
   603  5.8398e-03  2.3865e-03  1.4220e-02  6.8245e-01  5.8235e-03  6.7198e-03  2.5753e-03  0:10:08 1397
   604  5.8740e-03  2.3745e-03  1.4268e-02  6.9022e-01  5.8578e-03  6.7067e-03  2.5793e-03  0:12:45 1396
   605  5.9021e-03  2.3644e-03  1.4316e-02  6.9757e-01  5.8859e-03  6.6917e-03  2.5792e-03  0:10:11 1395

  iter  continuity  x-velocity  y-velocity  z-velocity      energy           k       omega     time/iter
   606  5.9296e-03  2.3569e-03  1.4362e-02  7.0804e-01  5.9134e-03  6.6754e-03  2.5894e-03  0:12:48 1394
   607  5.9553e-03  2.3511e-03  1.4405e-02  7.2015e-01  5.9392e-03  6.6555e-03  2.6027e-03  0:10:14 1393
   608  5.9697e-03  2.3454e-03  1.4447e-02  7.2846e-01  5.9535e-03  6.6386e-03  2.6066e-03  0:12:49 1392
   609  5.9849e-03  2.3404e-03  1.4486e-02  7.3932e-01  5.9689e-03  6.6376e-03  2.6083e-03  0:10:15 1391
   610  5.9894e-03  2.3361e-03  1.4523e-02  7.5340e-01  5.9734e-03  6.6414e-03  2.6146e-03  0:12:49 1390
   611  5.9875e-03  2.3314e-03  1.4557e-02  7.6736e-01  5.9715e-03  6.6409e-03  2.6193e-03  0:10:15 1389
   612  5.9880e-03  2.3261e-03  1.4589e-02  7.7892e-01  5.9721e-03  6.6313e-03  2.6256e-03  0:12:49 1388
   613  5.9923e-03  2.3209e-03  1.4619e-02  7.9166e-01  5.9763e-03  6.6131e-03  2.6360e-03  0:10:15 1387
   614  6.0077e-03  2.3170e-03  1.4648e-02  8.0483e-01  5.9918e-03  6.5802e-03  2.6437e-03  0:12:49 1386
   615  6.0161e-03  2.3149e-03  1.4676e-02  8.1606e-01  6.0001e-03  6.5521e-03  2.6422e-03  0:10:15 1385
   616  6.0127e-03  2.3138e-03  1.4704e-02  8.2588e-01  5.9968e-03  6.5486e-03  2.6436e-03  0:08:11 1384

  iter  continuity  x-velocity  y-velocity  z-velocity      energy           k       omega     time/iter
   617  5.9965e-03  2.3140e-03  1.4730e-02  8.3524e-01  5.9806e-03  6.5430e-03  2.6466e-03  0:11:09 1383
   618  5.9660e-03  2.3156e-03  1.4756e-02  8.4093e-01  5.9501e-03  6.5456e-03  2.6458e-03  0:13:32 1382
   619  5.9217e-03  2.3194e-03  1.4780e-02  8.4073e-01  5.9059e-03  6.5425e-03  2.6442e-03  0:10:49 1381
   620  5.8686e-03  2.3254e-03  1.4803e-02  8.4270e-01  5.8528e-03  6.5262e-03  2.6500e-03  0:08:39 1380
   621  5.7963e-03  2.3331e-03  1.4825e-02  8.4255e-01  5.7806e-03  6.5076e-03  2.6516e-03  0:11:30 1379
   622  5.7167e-03  2.3427e-03  1.4847e-02  8.3836e-01  5.7011e-03  6.4854e-03  2.6515e-03  0:09:12 1378
   623  5.6322e-03  2.3535e-03  1.4868e-02  8.3788e-01  5.6168e-03  6.4641e-03  2.6553e-03  0:11:57 1377
   624  5.5079e-03  2.3655e-03  1.4889e-02  8.3512e-01  5.4926e-03  6.4467e-03  2.6580e-03  0:09:33 1376
   625  5.3604e-03  2.3770e-03  1.4911e-02  8.3134e-01  5.3454e-03  6.4443e-03  2.6540e-03  0:12:13 1375
   626  5.2050e-03  2.3874e-03  1.4933e-02  8.2784e-01  5.1901e-03  6.4412e-03  2.6527e-03  0:09:46 1374
[...]
  1838  1.4442e-03  1.2474e-03  6.1125e-03  2.9873e-01  1.4410e-03  1.4029e-03  6.9523e-04  0:00:47  162
  1839  1.4379e-03  1.2460e-03  6.0965e-03  2.9994e-01  1.4347e-03  1.4032e-03  6.9491e-04  0:00:37  161
  1840  1.4324e-03  1.2447e-03  6.0807e-03  3.0364e-01  1.4292e-03  1.4037e-03  6.9356e-04  0:01:02  160
  1841  1.4278e-03  1.2431e-03  6.0655e-03  3.0936e-01  1.4247e-03  1.4044e-03  6.9252e-04  0:00:49  159
  1842  1.4238e-03  1.2410e-03  6.0505e-03  3.2162e-01  1.4208e-03  1.4051e-03  6.9309e-04  0:00:39  158
  1843  1.4191e-03  1.2384e-03  6.0352e-03  3.2983e-01  1.4161e-03  1.4062e-03  6.9452e-04  0:00:31  157
  1844  1.4153e-03  1.2355e-03  6.0199e-03  3.3789e-01  1.4123e-03  1.4076e-03  6.9631e-04  0:00:56  156
  1845  1.4139e-03  1.2325e-03  6.0046e-03  3.4266e-01  1.4110e-03  1.4089e-03  6.9790e-04  0:00:44  155
  1846  1.4171e-03  1.2292e-03  5.9890e-03  3.4178e-01  1.4143e-03  1.4103e-03  6.9876e-04  0:00:35  154
  1847  1.4165e-03  1.2259e-03  5.9732e-03  3.3614e-01  1.4137e-03  1.4120e-03  6.9987e-04  0:00:59  153
  1848  1.4131e-03  1.2223e-03  5.9572e-03  3.3273e-01  1.4104e-03  1.4140e-03  7.0134e-04  0:00:47  152

  iter  continuity  x-velocity  y-velocity  z-velocity      energy           k       omega     time/iter
  1849  1.4089e-03  1.2187e-03  5.9412e-03  3.2135e-01  1.4063e-03  1.4161e-03  7.0193e-04  0:00:37  151
  1850  1.4037e-03  1.2151e-03  5.9250e-03  3.0708e-01  1.4011e-03  1.4184e-03  7.0401e-04  0:00:59  150
  1851  1.3975e-03  1.2116e-03  5.9086e-03  2.9284e-01  1.3950e-03  1.4208e-03  7.0611e-04  0:00:47  149
  1852  1.3920e-03  1.2085e-03  5.8920e-03  2.7910e-01  1.3895e-03  1.4235e-03  7.0849e-04  0:00:38  148
  1853  1.3881e-03  1.2050e-03  5.8754e-03  2.7297e-01  1.3856e-03  1.4264e-03  7.1103e-04  0:00:30  147
  1854  1.3852e-03  1.2014e-03  5.8589e-03  2.7115e-01  1.3828e-03  1.4294e-03  7.1239e-04  0:00:53  146
  1855  1.3835e-03  1.1977e-03  5.8424e-03  2.7267e-01  1.3811e-03  1.4326e-03  7.1306e-04  0:00:42  145
  1856  1.3819e-03  1.1940e-03  5.8257e-03  2.8066e-01  1.3796e-03  1.4360e-03  7.1367e-04  0:00:33  144
  1857  1.3801e-03  1.1901e-03  5.8079e-03  2.9226e-01  1.3778e-03  1.4395e-03  7.1444e-04  0:00:55  143
  1858  1.3809e-03  1.1860e-03  5.7879e-03  3.0331e-01  1.3786e-03  1.4428e-03  7.1570e-04  0:00:44  142
  1859  1.3861e-03  1.1819e-03  5.7675e-03  3.1360e-01  1.3839e-03  1.4456e-03  7.1606e-04  0:00:35  141

  iter  continuity  x-velocity  y-velocity  z-velocity      energy           k       omega     time/iter
  1860  1.3900e-03  1.1777e-03  5.7479e-03  3.2469e-01  1.3878e-03  1.4484e-03  7.1563e-04  0:00:28  140
  1861  1.3932e-03  1.1735e-03  5.7288e-03  3.3584e-01  1.3910e-03  1.4511e-03  7.1685e-04  0:00:50  139
  1862  1.3999e-03  1.1684e-03  5.7099e-03  3.5044e-01  1.3978e-03  1.4541e-03  7.1838e-04  0:00:40  138
  1863  1.4070e-03  1.1633e-03  5.6911e-03  3.6886e-01  1.4049e-03  1.4574e-03  7.1897e-04  0:00:59  137
  1864  1.4132e-03  1.1585e-03  5.6723e-03  3.8784e-01  1.4111e-03  1.4609e-03  7.2007e-04  0:00:47  136
  1865  1.4190e-03  1.1540e-03  5.6534e-03  4.0912e-01  1.4170e-03  1.4645e-03  7.2361e-04  0:00:37  135
  1866  1.4252e-03  1.1495e-03  5.6343e-03  4.2808e-01  1.4232e-03  1.4683e-03  7.2299e-04  0:00:56  134
  1867  1.4313e-03  1.1452e-03  5.6154e-03  4.4824e-01  1.4293e-03  1.4722e-03  7.2522e-04  0:00:45  133
  1868  1.4373e-03  1.1408e-03  5.5956e-03  4.6343e-01  1.4354e-03  1.4764e-03  7.2748e-04  0:00:35  132
  1869  1.4436e-03  1.1362e-03  5.5756e-03  4.7038e-01  1.4417e-03  1.4812e-03  7.2733e-04  0:00:28  131
  1870  1.4497e-03  1.1318e-03  5.5570e-03  4.7875e-01  1.4479e-03  1.4861e-03  7.2827e-04  0:00:48  130

  iter  continuity  x-velocity  y-velocity  z-velocity      energy           k       omega     time/iter
  1871  1.4551e-03  1.1271e-03  5.5394e-03  4.8892e-01  1.4533e-03  1.4907e-03  7.3010e-04  0:00:38  129
  1872  1.4604e-03  1.1224e-03  5.5225e-03  5.0069e-01  1.4587e-03  1.4952e-03  7.3094e-04  0:00:30  128
  1873  1.4653e-03  1.1179e-03  5.5060e-03  5.1496e-01  1.4636e-03  1.4994e-03  7.3113e-04  0:00:50  127
  1874  1.4688e-03  1.1136e-03  5.4898e-03  5.3445e-01  1.4672e-03  1.5031e-03  7.3128e-04  0:00:39  126
  1875  1.4718e-03  1.1097e-03  5.4730e-03  5.5709e-01  1.4702e-03  1.5069e-03  7.3253e-04  0:00:31  125
  1876  1.4742e-03  1.1063e-03  5.4562e-03  5.8076e-01  1.4727e-03  1.5108e-03  7.3400e-04  0:00:25  124
  1877  1.4754e-03  1.1027e-03  5.4392e-03  6.0461e-01  1.4739e-03  1.5151e-03  7.3547e-04  0:00:44  123
  1878  1.4761e-03  1.0992e-03  5.4220e-03  6.2610e-01  1.4746e-03  1.5194e-03  7.3648e-04  0:00:35  122
  1879  1.4760e-03  1.0953e-03  5.4050e-03  6.4541e-01  1.4746e-03  1.5235e-03  7.3783e-04  0:00:28  121
  1880  1.4745e-03  1.0913e-03  5.3876e-03  6.6223e-01  1.4731e-03  1.5283e-03  7.3804e-04  0:00:46  120
  1881  1.4731e-03  1.0875e-03  5.3701e-03  6.7777e-01  1.4718e-03  1.5330e-03  7.3950e-04  0:00:37  119

  iter  continuity  x-velocity  y-velocity  z-velocity      energy           k       omega     time/iter
  1882  1.4712e-03  1.0838e-03  5.3521e-03  6.9307e-01  1.4698e-03  1.5377e-03  7.3905e-04  0:00:29  118
  1883  1.4686e-03  1.0803e-03  5.3340e-03  7.0681e-01  1.4673e-03  1.5420e-03  7.3987e-04  0:00:46  117
  1884  1.4661e-03  1.0770e-03  5.3156e-03  7.1890e-01  1.4648e-03  1.5463e-03  7.4151e-04  0:00:37  116
  1885  1.4636e-03  1.0736e-03  5.2970e-03  7.2990e-01  1.4624e-03  1.5494e-03  7.4318e-04  0:00:29  115
  1886  1.4611e-03  1.0703e-03  5.2784e-03  7.3958e-01  1.4599e-03  1.5515e-03  7.4394e-04  0:00:46  114
  1887  1.4586e-03  1.0672e-03  5.2596e-03  7.4849e-01  1.4574e-03  1.5544e-03  7.4376e-04  0:00:36  113
  1888  1.4563e-03  1.0640e-03  5.2406e-03  7.5651e-01  1.4552e-03  1.5575e-03  7.4333e-04  0:00:29  112
  1889  1.4542e-03  1.0610e-03  5.2219e-03  7.6486e-01  1.4532e-03  1.5610e-03  7.4407e-04  0:00:45  111
  1890  1.4524e-03  1.0578e-03  5.2030e-03  7.7574e-01  1.4514e-03  1.5655e-03  7.4488e-04  0:00:36  110
  1891  1.4507e-03  1.0540e-03  5.1841e-03  7.8813e-01  1.4498e-03  1.5695e-03  7.4498e-04  0:00:28  109
  1892  1.4493e-03  1.0507e-03  5.1650e-03  8.0398e-01  1.4483e-03  1.5728e-03  7.4425e-04  0:00:44  108

  iter  continuity  x-velocity  y-velocity  z-velocity      energy           k       omega     time/iter
  1893  1.4483e-03  1.0476e-03  5.1459e-03  8.2063e-01  1.4474e-03  1.5752e-03  7.4458e-04  0:00:35  107
  1894  1.4481e-03  1.0448e-03  5.1263e-03  8.3741e-01  1.4472e-03  1.5774e-03  7.4498e-04  0:00:28  106
  1895  1.4488e-03  1.0420e-03  5.1064e-03  8.5613e-01  1.4480e-03  1.5798e-03  7.4554e-04  0:00:43  105
  1896  1.4503e-03  1.0389e-03  5.0862e-03  8.7736e-01  1.4494e-03  1.5818e-03  7.4605e-04  0:00:34  104
  1897  1.4519e-03  1.0353e-03  5.0657e-03  9.0087e-01  1.4511e-03  1.5835e-03  7.4643e-04  0:00:27  103
  1898  1.4541e-03  1.0316e-03  5.0457e-03  9.2761e-01  1.4533e-03  1.5852e-03  7.4826e-04  0:00:42  102
  1899  1.4568e-03  1.0280e-03  5.0258e-03  9.5692e-01  1.4560e-03  1.5861e-03  7.5226e-04  0:00:33  101
  1900  1.4601e-03  1.0243e-03  5.0055e-03  9.9473e-01  1.4594e-03  1.5881e-03  7.5380e-04  0:00:26  100
  1901  1.4647e-03  1.0206e-03  4.9844e-03  1.0414e+00  1.4640e-03  1.5898e-03  7.5836e-04  0:00:21   99
  1902  1.4703e-03  1.0171e-03  4.9616e-03  1.0901e+00  1.4696e-03  1.5906e-03  7.6241e-04  0:00:36   98
  1903  1.4766e-03  1.0135e-03  4.9375e-03  1.1387e+00  1.4759e-03  1.5907e-03  7.6528e-04  0:00:29   97

  iter  continuity  x-velocity  y-velocity  z-velocity      energy           k       omega     time/iter
  1904  1.4831e-03  1.0102e-03  4.9146e-03  1.1846e+00  1.4825e-03  1.5905e-03  7.6889e-04  0:00:42   96
  1905  1.4899e-03  1.0071e-03  4.8926e-03  1.2251e+00  1.4893e-03  1.5909e-03  7.7200e-04  0:00:33   95
  1906  1.4973e-03  1.0043e-03  4.8720e-03  1.2629e+00  1.4967e-03  1.5919e-03  7.7530e-04  0:00:26   94
  1907  1.5054e-03  1.0020e-03  4.8524e-03  1.3000e+00  1.5048e-03  1.5924e-03  7.7652e-04  0:00:21   93
  1908  1.5137e-03  9.9955e-04  4.8331e-03  1.3376e+00  1.5131e-03  1.5922e-03  7.7817e-04  0:00:35   92
  1909  1.5225e-03  9.9729e-04  4.8142e-03  1.4356e+00  1.5219e-03  1.5917e-03  7.8041e-04  0:00:28   91
  1910  1.5320e-03  9.9520e-04  4.7955e-03  1.5534e+00  1.5314e-03  1.5908e-03  7.8266e-04  0:00:22   90
  1911  1.5421e-03  9.9306e-04  4.7770e-03  1.6838e+00  1.5415e-03  1.5899e-03  7.8479e-04  0:00:35   89
  1912  1.5523e-03  9.9096e-04  4.7590e-03  1.7896e+00  1.5518e-03  1.5898e-03  7.8723e-04  0:00:28   88
  1913  1.5631e-03  9.8891e-04  4.7421e-03  1.8611e+00  1.5625e-03  1.5901e-03  7.8986e-04  0:00:22   87
  1914  1.5738e-03  9.8686e-04  4.7259e-03  1.8963e+00  1.5733e-03  1.5906e-03  7.9190e-04  0:00:35   86

  iter  continuity  x-velocity  y-velocity  z-velocity      energy           k       omega     time/iter
  1915  1.5846e-03  9.8444e-04  4.7104e-03  1.9027e+00  1.5841e-03  1.5915e-03  7.9162e-04  0:00:27   85
  1916  1.5956e-03  9.8214e-04  4.6954e-03  1.8901e+00  1.5951e-03  1.5902e-03  7.9154e-04  0:00:22   84
  1917  1.6067e-03  9.7967e-04  4.6810e-03  1.8676e+00  1.6062e-03  1.5875e-03  7.9095e-04  0:00:34   83
  1918  1.6168e-03  9.7708e-04  4.6671e-03  1.8420e+00  1.6163e-03  1.5857e-03  7.9205e-04  0:00:27   82
  1919  1.6266e-03  9.7408e-04  4.6539e-03  1.8170e+00  1.6262e-03  1.5843e-03  7.9144e-04  0:00:21   81
  1920  1.6360e-03  9.7063e-04  4.6412e-03  1.7946e+00  1.6356e-03  1.5830e-03  7.9073e-04  0:00:33   80
  1921  1.6450e-03  9.6732e-04  4.6288e-03  1.7739e+00  1.6446e-03  1.5819e-03  7.9067e-04  0:00:26   79
  1922  1.6543e-03  9.6421e-04  4.6174e-03  1.7544e+00  1.6540e-03  1.5810e-03  7.9028e-04  0:00:20   78
  1923  1.6640e-03  9.6133e-04  4.6070e-03  1.7352e+00  1.6637e-03  1.5806e-03  7.8945e-04  0:00:31   77
  1924  1.6737e-03  9.5867e-04  4.5973e-03  1.7181e+00  1.6734e-03  1.5802e-03  7.9159e-04  0:00:25   76
  1925  1.6832e-03  9.5610e-04  4.5880e-03  1.7016e+00  1.6830e-03  1.5794e-03  7.9224e-04  0:00:20   75

  iter  continuity  x-velocity  y-velocity  z-velocity      energy           k       omega     time/iter
  1926  1.6928e-03  9.5348e-04  4.5788e-03  1.6839e+00  1.6926e-03  1.5793e-03  7.9281e-04  0:00:30   74
  1927  1.7024e-03  9.5047e-04  4.5696e-03  1.6657e+00  1.7021e-03  1.5788e-03  7.9328e-04  0:00:24   73
  1928  1.7125e-03  9.4752e-04  4.5607e-03  1.6482e+00  1.7123e-03  1.5779e-03  7.9346e-04  0:00:19   72
  1929  1.7237e-03  9.4474e-04  4.5521e-03  1.6309e+00  1.7235e-03  1.5775e-03  7.9400e-04  0:00:15   71
  1930  1.7356e-03  9.4190e-04  4.5440e-03  1.6148e+00  1.7354e-03  1.5769e-03  7.9529e-04  0:00:26   70
  1931  1.7479e-03  9.3915e-04  4.5365e-03  1.5988e+00  1.7477e-03  1.5766e-03  7.9629e-04  0:00:20   69
  1932  1.7608e-03  9.3658e-04  4.5297e-03  1.5802e+00  1.7606e-03  1.5763e-03  7.9808e-04  0:00:16   68
  1933  1.7748e-03  9.3429e-04  4.5236e-03  1.5595e+00  1.7746e-03  1.5750e-03  8.0064e-04  0:00:26   67
  1934  1.7899e-03  9.3213e-04  4.5178e-03  1.5366e+00  1.7897e-03  1.5737e-03  8.0135e-04  0:00:20   66
  1935  1.8061e-03  9.2998e-04  4.5123e-03  1.5091e+00  1.8060e-03  1.5729e-03  8.0130e-04  0:00:16   65
  1936  1.8231e-03  9.2796e-04  4.5068e-03  1.4772e+00  1.8230e-03  1.5723e-03  8.0075e-04  0:00:26   64

  iter  continuity  x-velocity  y-velocity  z-velocity      energy           k       omega     time/iter
  1937  1.8417e-03  9.2614e-04  4.5012e-03  1.4432e+00  1.8416e-03  1.5718e-03  8.0162e-04  0:00:20   63
  1938  1.8619e-03  9.2415e-04  4.4950e-03  1.4044e+00  1.8618e-03  1.5709e-03  8.0281e-04  0:00:16   62
  1939  1.8830e-03  9.2229e-04  4.4890e-03  1.3588e+00  1.8829e-03  1.5699e-03  8.0131e-04  0:00:25   61
  1940  1.9053e-03  9.2062e-04  4.4837e-03  1.3064e+00  1.9052e-03  1.5687e-03  7.9886e-04  0:00:19   60
  1941  1.9292e-03  9.1912e-04  4.4790e-03  1.2505e+00  1.9291e-03  1.5673e-03  7.9823e-04  0:00:15   59
  1942  1.9536e-03  9.1743e-04  4.4747e-03  1.1919e+00  1.9535e-03  1.5660e-03  7.9882e-04  0:00:24   58
  1943  1.9770e-03  9.1597e-04  4.4699e-03  1.1317e+00  1.9769e-03  1.5656e-03  8.0076e-04  0:00:19   57
  1944  1.9996e-03  9.1463e-04  4.4646e-03  1.0715e+00  1.9995e-03  1.5654e-03  8.0189e-04  0:00:15   56
  1945  2.0216e-03  9.1353e-04  4.4592e-03  1.0085e+00  2.0214e-03  1.5643e-03  8.0462e-04  0:00:22   55
  1946  2.0427e-03  9.1217e-04  4.4542e-03  9.4923e-01  2.0426e-03  1.5634e-03  8.0549e-04  0:00:18   54
  1947  2.0626e-03  9.1094e-04  4.4496e-03  8.9268e-01  2.0625e-03  1.5624e-03  8.0762e-04  0:00:14   53

  iter  continuity  x-velocity  y-velocity  z-velocity      energy           k       omega     time/iter
  1948  2.0807e-03  9.0961e-04  4.4456e-03  8.4198e-01  2.0805e-03  1.5610e-03  8.0874e-04  0:00:11   52
  1949  2.0991e-03  9.0794e-04  4.4422e-03  7.9696e-01  2.0989e-03  1.5601e-03  8.0922e-04  0:00:19   51
  1950  2.1163e-03  9.0621e-04  4.4385e-03  7.6228e-01  2.1161e-03  1.5593e-03  8.1034e-04  0:00:15   50
  1951  2.1317e-03  9.0391e-04  4.4325e-03  7.3513e-01  2.1315e-03  1.5586e-03  8.1180e-04  0:00:12   49
  1952  2.1453e-03  9.0100e-04  4.4258e-03  7.1622e-01  2.1450e-03  1.5581e-03  8.1286e-04  0:00:19   48
  1953  2.1573e-03  8.9792e-04  4.4194e-03  7.0247e-01  2.1569e-03  1.5580e-03  8.1301e-04  0:00:15   47
  1954  2.1676e-03  8.9504e-04  4.4138e-03  6.9084e-01  2.1672e-03  1.5584e-03  8.1408e-04  0:00:21   46
  1955  2.1756e-03  8.9219e-04  4.4090e-03  6.8177e-01  2.1752e-03  1.5587e-03  8.1440e-04  0:00:16   45
  1956  2.1818e-03  8.8929e-04  4.4044e-03  6.8075e-01  2.1813e-03  1.5589e-03  8.1315e-04  0:00:13   44
  1957  2.1864e-03  8.8643e-04  4.4007e-03  6.8387e-01  2.1859e-03  1.5587e-03  8.1214e-04  0:00:10   43
  1958  2.1897e-03  8.8343e-04  4.3971e-03  6.8764e-01  2.1891e-03  1.5583e-03  8.1214e-04  0:00:16   42

  iter  continuity  x-velocity  y-velocity  z-velocity      energy           k       omega     time/iter
  1959  2.1909e-03  8.8031e-04  4.3941e-03  6.8846e-01  2.1903e-03  1.5577e-03  8.1191e-04  0:00:13   41
  1960  2.1900e-03  8.7700e-04  4.3917e-03  6.8947e-01  2.1893e-03  1.5572e-03  8.1281e-04  0:00:10   40
  1961  2.1867e-03  8.7349e-04  4.3900e-03  7.0043e-01  2.1860e-03  1.5562e-03  8.1313e-04  0:00:15   39
  1962  2.1811e-03  8.6985e-04  4.3890e-03  7.1963e-01  2.1803e-03  1.5554e-03  8.1287e-04  0:00:12   38
  1963  2.1737e-03  8.6622e-04  4.3887e-03  7.4512e-01  2.1728e-03  1.5553e-03  8.1277e-04  0:00:09   37
  1964  2.1648e-03  8.6262e-04  4.3896e-03  7.7231e-01  2.1638e-03  1.5555e-03  8.1285e-04  0:00:15   36
  1965  2.1545e-03  8.5911e-04  4.3914e-03  8.0039e-01  2.1534e-03  1.5562e-03  8.1323e-04  0:00:11   35
  1966  2.1433e-03  8.5579e-04  4.3941e-03  8.3246e-01  2.1422e-03  1.5576e-03  8.1512e-04  0:00:09   34
  1967  2.1311e-03  8.5264e-04  4.3977e-03  8.7107e-01  2.1299e-03  1.5588e-03  8.1592e-04  0:00:13   33
  1968  2.1186e-03  8.4968e-04  4.4022e-03  9.2097e-01  2.1173e-03  1.5602e-03  8.1455e-04  0:00:10   32
  1969  2.1062e-03  8.4690e-04  4.4073e-03  9.8298e-01  2.1049e-03  1.5606e-03  8.1336e-04  0:00:08   31

  iter  continuity  x-velocity  y-velocity  z-velocity      energy           k       omega     time/iter
  1970  2.0942e-03  8.4425e-04  4.4123e-03  1.0548e+00  2.0927e-03  1.5603e-03  8.1238e-04  0:00:12   30
  1971  2.0796e-03  8.4179e-04  4.4171e-03  1.1318e+00  2.0780e-03  1.5603e-03  8.1292e-04  0:00:09   29
  1972  2.0644e-03  8.3953e-04  4.4220e-03  1.2088e+00  2.0627e-03  1.5602e-03  8.1383e-04  0:00:07   28
  1973  2.0484e-03  8.3735e-04  4.4271e-03  1.2852e+00  2.0466e-03  1.5605e-03  8.1423e-04  0:00:11   27
  1974  2.0315e-03  8.3533e-04  4.4319e-03  1.3586e+00  2.0296e-03  1.5613e-03  8.1405e-04  0:00:09   26
  1975  2.0137e-03  8.3341e-04  4.4367e-03  1.4295e+00  2.0117e-03  1.5622e-03  8.1505e-04  0:00:07   25
  1976  1.9951e-03  8.3136e-04  4.4414e-03  1.4980e+00  1.9929e-03  1.5626e-03  8.1371e-04  0:00:10   24
  1977  1.9755e-03  8.2903e-04  4.4460e-03  1.5663e+00  1.9733e-03  1.5629e-03  8.1260e-04  0:00:08   23
  1978  1.9554e-03  8.2702e-04  4.4503e-03  1.6369e+00  1.9530e-03  1.5639e-03  8.1095e-04  0:00:06   22
  1979  1.9348e-03  8.2501e-04  4.4544e-03  1.7109e+00  1.9323e-03  1.5651e-03  8.1021e-04  0:00:09   21
  1980  1.9138e-03  8.2268e-04  4.4579e-03  1.7851e+00  1.9111e-03  1.5662e-03  8.0885e-04  0:00:07   20

  iter  continuity  x-velocity  y-velocity  z-velocity      energy           k       omega     time/iter
  1981  1.8923e-03  8.2050e-04  4.4607e-03  1.8588e+00  1.8894e-03  1.5667e-03  8.0939e-04  0:00:05   19
  1982  1.8705e-03  8.1864e-04  4.4627e-03  1.9314e+00  1.8675e-03  1.5676e-03  8.1042e-04  0:00:07   18
  1983  1.8483e-03  8.1707e-04  4.4638e-03  2.0045e+00  1.8452e-03  1.5679e-03  8.1050e-04  0:00:06   17
  1984  1.8256e-03  8.1518e-04  4.4640e-03  2.0750e+00  1.8223e-03  1.5683e-03  8.0986e-04  0:00:04   16
  1985  1.8029e-03  8.1331e-04  4.4626e-03  2.1421e+00  1.7994e-03  1.5695e-03  8.0906e-04  0:00:06   15
  1986  1.7803e-03  8.1138e-04  4.4604e-03  2.2077e+00  1.7767e-03  1.5711e-03  8.0940e-04  0:00:05   14
  1987  1.7577e-03  8.0939e-04  4.4576e-03  2.2742e+00  1.7540e-03  1.5726e-03  8.0874e-04  0:00:03   13
  1988  1.7349e-03  8.0692e-04  4.4543e-03  2.3435e+00  1.7310e-03  1.5739e-03  8.0833e-04  0:00:05   12
  1989  1.7119e-03  8.0430e-04  4.4511e-03  2.4239e+00  1.7079e-03  1.5755e-03  8.0830e-04  0:00:04   11
  1990  1.6894e-03  8.0153e-04  4.4480e-03  2.5228e+00  1.6852e-03  1.5769e-03  8.0985e-04  0:00:03   10
  1991  1.6680e-03  7.9842e-04  4.4453e-03  2.6426e+00  1.6636e-03  1.5787e-03  8.0985e-04  0:00:04    9

  iter  continuity  x-velocity  y-velocity  z-velocity      energy           k       omega     time/iter
  1992  1.6473e-03  7.9517e-04  4.4428e-03  2.7905e+00  1.6427e-03  1.5798e-03  8.1051e-04  0:00:03    8
  1993  1.6277e-03  7.9196e-04  4.4405e-03  2.9675e+00  1.6230e-03  1.5807e-03  8.1124e-04  0:00:02    7
  1994  1.6091e-03  7.8841e-04  4.4385e-03  3.1582e+00  1.6043e-03  1.5821e-03  8.1224e-04  0:00:02    6
  1995  1.5913e-03  7.8485e-04  4.4367e-03  3.3597e+00  1.5863e-03  1.5836e-03  8.1314e-04  0:00:02    5
  1996  1.5749e-03  7.8102e-04  4.4351e-03  3.5693e+00  1.5698e-03  1.5847e-03  8.1628e-04  0:00:02    4
  1997  1.5596e-03  7.7693e-04  4.4337e-03  3.7860e+00  1.5544e-03  1.5860e-03  8.1829e-04  0:00:01    3
  1998  1.5427e-03  7.7324e-04  4.4327e-03  4.0074e+00  1.5373e-03  1.5868e-03  8.1810e-04  0:00:01    2
  1999  1.5233e-03  7.6985e-04  4.4322e-03  4.2357e+00  1.5177e-03  1.5875e-03  8.1757e-04  0:00:00    1
  2000  1.5045e-03  7.6677e-04  4.4322e-03  4.4894e+00  1.4987e-03  1.5882e-03  8.1663e-04  0:00:00    0

> 
adjoint/                parallel/               server/
define/                 parametric-study/       solve/
display/                plot/                   surface/
exit                    preferences/            turbo-workflow/
file/                   print-license-usage     views/
mesh/                   report/

> /file/write-case-data project1
Fast-loading "C:\PROGRA~1\ANSYSI~1\v231\fluent\fluent23.1.0\\addons\afd\lib\hdfio.bin"
Done.

Writing to Engs-30669:"C:\Users\kebl7595\Desktop\CFD\Runs\Flap\15 degrees\project1.cas.h5" in NODE0 mode and compression level 1 ...
       24072 cells,     1 zone  ...
       80918 faces,     7 zones ...
       33000 nodes,     1 zone  ...
  Done.
Done.

Writing to Engs-30669:"C:\Users\kebl7595\Desktop\CFD\Runs\Flap\15 degrees\project1.dat.h5" in NODE0 mode and compression level 1 ...
  Writing results.
Done.

> /file/export/ascii "./surface.dat" wing () no pressure mach-number quit no

Writing "./surface.dat"...

Writing information to ascii file ...
Done.


> /report/forces/wall-forces y -0.25882 -0.96593 0 y "Lift"

> /report/forces/wall-forces y 0.96593 -0.25882 0 y "Drag"

> ;/exit

> /exit y

Posting ANSYS Product Improvement Program performance data 
Done.
Auto-Transcript Stop Time:  10:24:33, 22 May 2024 GMT Daylight Time 
Total Transcript Time: 15 Minute 19 Second.
