Auto-Transcript Start Time:  10:08:59, 22 May 2024 GMT Daylight Time 
Current Directory: "C:\Users\kebl7595\Desktop\CFD\Runs\Flap\12 degrees"

              Welcome to ANSYS Fluent 2023 R1

              Copyright 1987-2023 ANSYS, Inc. All Rights Reserved.
              Unauthorized use, distribution or duplication is prohibited.
              This product is subject to U.S. laws governing export and re-export.
              For full Legal Notice, see documentation.

Build Time: Nov 28 2022 09:52:02 EST  Build Id: 10208  
 
Connected License Server List:	1055@ansyslic.eng.ox.ac.uk

*********************************************
Info: Your license enables 4-way parallel execution.
For faster simulations, please start the application with the appropriate parallel options.
*********************************************


     --------------------------------------------------------------
     This is an academic version of ANSYS FLUENT. Usage of this product
     license is limited to the terms and conditions specified in your ANSYS
     license form, additional terms section.
     --------------------------------------------------------------
Host spawning Node 0 on machine "Engs-30669" (win64).

------------------------------------------------------------------------------------
ID    Hostname    Core  O.S.         PID    Vendor                                 
------------------------------------------------------------------------------------
n0    Engs-30669  1/32  Windows-x64  46816  13th Gen Intel(R) Core(TM) i9-13900    
host  Engs-30669        Windows-x64  28456  13th Gen Intel(R) Core(TM) i9-13900    

MPI Option Selected: intel
------------------------------------------------------------------------------------

Cleanup script file is C:\\Users\\kebl7595\\Desktop\\CFD\\Runs\\Flap\\12 degrees\\cleanup-fluent-Engs-30669-28456.bat

Posting ANSYS Product Improvement Program startup data
Done.

Reading journal file C:/Users/kebl7595/Desktop/CFD/Runs/Flap/12 degrees/project1.jou...

> /file/set-batch-options no no no 

> 
define/                 parametric-study/       solve/
display/                plot/                   surface/
exit                    preferences/            switch-to-meshing-mode
file/                   print-license-usage     turbo-workflow/
mesh/                   report/                 views/
parallel/               server/

> /file/import/cgns/mesh  "./project1.cgns"
Engs-30669 has other FLUENT parallel processes running.                       Process affinity not being set.

Importing "./project1.cgns"

Opening library "C:\\PROGRA~1\\ANSYSI~1\\v231\\fluent\\fluent23.1.0\\vki\\win64\\devtools4.4.6.dll"... done.

Read    33000 nodes
   24072 hexahedral cells, zone  1
   17404 quadrilateral wall faces, zone  2.
   63040 quadrilateral interior faces, zone  3.
     474 quadrilateral interface faces, zone  4.

Building...
     mesh
     materials,
     interface,
     domains,
     zones,
	interface-default_subface
	default_interior-1
	default_subface
	default
     parallel,
The automatic selection for flux type has changed to Rhie-Chow: momentum based.

Done.


> 
adjoint/                parallel/               server/
define/                 parametric-study/       solve/
display/                plot/                   surface/
exit                    preferences/            turbo-workflow/
file/                   print-license-usage     views/
mesh/                   report/

> /define/models/solver/density-based-implicit yes

> 
adjoint/                parallel/               server/
define/                 parametric-study/       solve/
display/                plot/                   surface/
exit                    preferences/            turbo-workflow/
file/                   print-license-usage     views/
mesh/                   report/

> /define/models/energy? yes yes invalid command [yes]
yes

> /define/models/viscous/kw-standard? yes

> 
adjoint/                parallel/               server/
define/                 parametric-study/       solve/
display/                plot/                   surface/
exit                    preferences/            turbo-workflow/
file/                   print-license-usage     views/
mesh/                   report/

> /define/materials/change-create air air air is a fluid
yes 
Density
ideal-gas no data required.

no no no no no no

> 
adjoint/                parallel/               server/
define/                 parametric-study/       solve/
display/                plot/                   surface/
exit                    preferences/            turbo-workflow/
file/                   print-license-usage     views/
mesh/                   report/

> /mesh/modify-zones/sep-face-zone-angle 2 90 yes

 8024 faces in contiguous region 0
 441 faces in contiguous region 1
 618 faces in contiguous region 2
 8024 faces in contiguous region 3
 297 faces in contiguous region 4
 Separates zone 2 into 5 zone(s).
Updating new zone information...
   created new zone default_subface:009 from default_subface
   created new zone default_subface:008 from default_subface
   created new zone default_subface:007 from default_subface
   created new zone default_subface:006 from default_subface
done.

> 
adjoint/                parallel/               server/
define/                 parametric-study/       solve/
display/                plot/                   surface/
exit                    preferences/            turbo-workflow/
file/                   print-license-usage     views/
mesh/                   report/

> /define/boundary-conditions/zone-name  6 wing

> /define/boundary-conditions/zone-name  2 sym1

> /define/boundary-conditions/zone-name  8 sym2

> 
adjoint/                parallel/               server/
define/                 parametric-study/       solve/
display/                plot/                   surface/
exit                    preferences/            turbo-workflow/
file/                   print-license-usage     views/
mesh/                   report/

> /define/boundary-conditions/zone-name  7 far1

> /define/boundary-conditions/zone-name 9 far2

> 
adjoint/                parallel/               server/
define/                 parametric-study/       solve/
display/                plot/                   surface/
exit                    preferences/            turbo-workflow/
file/                   print-license-usage     views/
mesh/                   report/

> /define/boundary-conditions/zone-type  7 pressure-far-field

> /define/boundary-conditions/zone-type 9 pressure-far-field

> /define/boundary-conditions/zone-type  2 symmetry

> /define/boundary-conditions/zone-type  8 symmetry

> 
adjoint/                parallel/               server/
define/                 parametric-study/       solve/
display/                plot/                   surface/
exit                    preferences/            turbo-workflow/
file/                   print-license-usage     views/
mesh/                   report/

> /define/boundary-conditions/pressure-far-field (far2 far1)
far1 no 0 no 0.1 no 300 yes no 0.97815 no -0.20791 no 0. no yes 5 0.02

> /define/boundary-conditions/pressure-far-field (far2 far1)
far2 no 0 no 0.1 no 300 yes no 0.97815 no -0.20791 no 0. no yes 5 0.02

> 
adjoint/                parallel/               server/
define/                 parametric-study/       solve/
display/                plot/                   surface/
exit                    preferences/            turbo-workflow/
file/                   print-license-usage     views/
mesh/                   report/

> /solve/initialize/compute-defaults/pressure-far-field (far2 far1)
far1

> /solve/initialize/initialize-flow

> 
adjoint/                parallel/               server/
define/                 parametric-study/       solve/
display/                plot/                   surface/
exit                    preferences/            turbo-workflow/
file/                   print-license-usage     views/
mesh/                   report/

> /solve/monitors/residual/convergence-criteria 1.e-9 1.e-9 1.e-9 1.e-9 1.e-9 1.e-9 1.e-9

> /solve/iterate 2000

  iter  continuity  x-velocity  y-velocity  z-velocity      energy           k       omega     time/iter
     1  1.0000e+00  1.0000e+00  1.0000e+00  1.0000e+00  1.0000e+00  4.7606e-02  4.9728e-02  0:00:00 1999
     2  4.6225e-01  2.6024e-01  2.7196e-01  1.0000e+00  4.6467e-01  4.2251e-02  3.6426e-02  0:33:18 1998
     3  2.0832e-01  1.4719e-01  1.6209e-01  9.9167e-01  2.0860e-01  3.7857e-02  3.1345e-02  0:33:17 1997
     4  1.4804e-01  8.7361e-02  1.0829e-01  9.3800e-01  1.4860e-01  3.4238e-02  2.8261e-02  0:26:37 1996
     5  1.2294e-01  6.0043e-02  8.3363e-02  9.6909e-01  1.2380e-01  3.1245e-02  2.6173e-02  0:21:17 1995
     6  1.0726e-01  4.2542e-02  6.8424e-02  9.3513e-01  1.0807e-01  2.8659e-02  2.4393e-02  0:23:40 1994
     7  9.4757e-02  2.9128e-02  5.7767e-02  9.5506e-01  9.5397e-02  2.6412e-02  2.2787e-02  0:18:55 1993
     8  8.7773e-02  1.9943e-02  5.0555e-02  9.9344e-01  8.8306e-02  2.4483e-02  2.1359e-02  0:15:08 1992
     9  8.2295e-02  1.4716e-02  4.6325e-02  1.0626e+00  8.2769e-02  2.2840e-02  2.0109e-02  0:12:06 1991
    10  7.7144e-02  1.2283e-02  4.4501e-02  1.0771e+00  7.7557e-02  2.1437e-02  1.8987e-02  0:16:18 1990
    11  7.2495e-02  1.0930e-02  4.4311e-02  1.0129e+00  7.2844e-02  2.0250e-02  1.7998e-02  0:13:02 1989

  iter  continuity  x-velocity  y-velocity  z-velocity      energy           k       omega     time/iter
    12  6.9369e-02  1.0041e-02  4.6917e-02  9.2911e-01  6.9675e-02  1.9271e-02  1.7121e-02  0:10:26 1988
    13  6.6694e-02  9.3211e-03  4.7857e-02  8.9228e-01  6.6962e-02  1.8433e-02  1.6384e-02  0:14:58 1987
    14  6.5248e-02  8.9219e-03  5.0474e-02  1.0177e+00  6.5504e-02  1.7704e-02  1.5737e-02  0:11:58 1986
    15  6.4291e-02  9.0668e-03  5.0991e-02  1.0293e+00  6.4523e-02  1.7049e-02  1.5221e-02  0:09:34 1985
    16  6.4331e-02  9.8462e-03  5.1358e-02  1.0044e+00  6.4556e-02  1.6427e-02  1.4663e-02  0:07:39 1984
    17  6.3806e-02  1.1201e-02  5.1388e-02  1.0181e+00  6.4022e-02  1.5873e-02  1.4168e-02  0:06:07 1983
    18  6.3658e-02  1.2475e-02  5.1178e-02  1.0642e+00  6.3872e-02  1.5357e-02  1.3862e-02  0:11:30 1982
    19  6.3400e-02  1.3522e-02  5.0904e-02  1.1063e+00  6.3612e-02  1.4892e-02  1.3481e-02  0:09:12 1981
    20  6.1652e-02  1.4523e-02  5.0495e-02  1.1409e+00  6.1851e-02  1.4481e-02  1.3177e-02  0:07:21 1980
    21  5.7819e-02  1.5400e-02  4.9921e-02  1.1467e+00  5.7991e-02  1.4120e-02  1.2795e-02  0:05:53 1979
    22  5.2153e-02  1.5910e-02  4.9321e-02  1.1306e+00  5.2284e-02  1.3792e-02  1.2428e-02  0:11:18 1978

  iter  continuity  x-velocity  y-velocity  z-velocity      energy           k       omega     time/iter
    23  4.5220e-02  1.5873e-02  4.8367e-02  1.0845e+00  4.5306e-02  1.3523e-02  1.2096e-02  0:09:02 1977
    24  3.8143e-02  1.5368e-02  4.7406e-02  1.0170e+00  3.8192e-02  1.3279e-02  1.1855e-02  0:07:13 1976
    25  3.1979e-02  1.4363e-02  4.6628e-02  9.3650e-01  3.2001e-02  1.3028e-02  1.1550e-02  0:05:46 1975
    26  2.7468e-02  1.3078e-02  4.6014e-02  8.7117e-01  2.7479e-02  1.2802e-02  1.1174e-02  0:11:12 1974
    27  2.4935e-02  1.1448e-02  4.5538e-02  8.2183e-01  2.4954e-02  1.2592e-02  1.0872e-02  0:08:57 1973
    28  2.3953e-02  9.6847e-03  4.5081e-02  7.8613e-01  2.3990e-02  1.2378e-02  1.0591e-02  0:07:09 1972
    29  2.4154e-02  8.1955e-03  4.4610e-02  7.5833e-01  2.4206e-02  1.2167e-02  1.0275e-02  0:05:43 1971
    30  2.5059e-02  7.2246e-03  4.4177e-02  7.3325e-01  2.5122e-02  1.1973e-02  9.9619e-03  0:11:09 1970
    31  2.6108e-02  6.5611e-03  4.3693e-02  7.1191e-01  2.6177e-02  1.1771e-02  9.7147e-03  0:08:55 1969
    32  2.7060e-02  6.0154e-03  4.3070e-02  6.9208e-01  2.7130e-02  1.1603e-02  9.4401e-03  0:07:07 1968
    33  2.7601e-02  5.5994e-03  4.2268e-02  6.7262e-01  2.7670e-02  1.1450e-02  9.1507e-03  0:05:42 1967

  iter  continuity  x-velocity  y-velocity  z-velocity      energy           k       omega     time/iter
    34  2.7785e-02  5.1986e-03  4.1239e-02  6.4967e-01  2.7849e-02  1.1315e-02  8.9292e-03  0:11:07 1966
    35  2.7607e-02  4.8077e-03  4.0023e-02  6.2141e-01  2.7663e-02  1.1210e-02  8.7204e-03  0:08:53 1965
    36  2.7092e-02  4.4114e-03  3.8657e-02  5.8974e-01  2.7137e-02  1.1113e-02  8.4908e-03  0:07:06 1964
    37  2.6351e-02  4.0385e-03  3.7159e-02  5.5657e-01  2.6382e-02  1.1019e-02  8.2928e-03  0:05:41 1963
    38  2.5393e-02  3.7255e-03  3.5548e-02  5.2326e-01  2.5408e-02  1.0922e-02  8.1328e-03  0:11:05 1962
    39  2.4337e-02  3.4925e-03  3.3873e-02  4.8818e-01  2.4336e-02  1.0837e-02  7.9852e-03  0:08:52 1961
    40  2.3488e-02  3.3795e-03  3.2194e-02  4.5984e-01  2.3473e-02  1.0747e-02  7.8586e-03  0:07:05 1960
    41  2.2798e-02  3.4085e-03  3.0539e-02  4.3434e-01  2.2769e-02  1.0657e-02  7.7659e-03  0:05:40 1959
    42  2.2286e-02  3.5300e-03  2.8910e-02  4.1028e-01  2.2248e-02  1.0562e-02  7.6924e-03  0:11:03 1958
    43  2.1915e-02  3.6930e-03  2.7363e-02  3.9213e-01  2.1872e-02  1.0473e-02  7.6869e-03  0:08:50 1957
    44  2.1719e-02  3.8610e-03  2.5867e-02  3.8407e-01  2.1673e-02  1.0384e-02  7.6422e-03  0:07:04 1956

  iter  continuity  x-velocity  y-velocity  z-velocity      energy           k       omega     time/iter
    45  2.1625e-02  4.0137e-03  2.4451e-02  3.8143e-01  2.1581e-02  1.0340e-02  7.6649e-03  0:05:39 1955
    46  2.1748e-02  4.1533e-03  2.3155e-02  3.8138e-01  2.1709e-02  1.0299e-02  7.6361e-03  0:04:31 1954
    47  2.2006e-02  4.2839e-03  2.2037e-02  3.8543e-01  2.1974e-02  1.0300e-02  7.6907e-03  0:10:07 1953
    48  2.2378e-02  4.4068e-03  2.1224e-02  3.9164e-01  2.2354e-02  1.0267e-02  7.6464e-03  0:08:06 1952
    49  2.2832e-02  4.4744e-03  2.0598e-02  4.0312e-01  2.2818e-02  1.0436e-02  7.6980e-03  0:06:28 1951
    50  2.3183e-02  4.4908e-03  2.0464e-02  4.1389e-01  2.3180e-02  1.0459e-02  7.6516e-03  0:05:11 1950
    51  2.3788e-02  4.5186e-03  2.0537e-02  4.2089e-01  2.3797e-02  1.0481e-02  7.5446e-03  0:04:08 1949
    52  2.4247e-02  4.5113e-03  2.0856e-02  4.2956e-01  2.4268e-02  1.0773e-02  7.5820e-03  0:09:48 1948
    53  2.4466e-02  4.5160e-03  2.1398e-02  4.4004e-01  2.4499e-02  1.0851e-02  7.5510e-03  0:07:50 1947
    54  2.4502e-02  4.5229e-03  2.2127e-02  4.5440e-01  2.4547e-02  1.0721e-02  7.4017e-03  0:06:16 1946
    55  2.4528e-02  4.4829e-03  2.2918e-02  4.6704e-01  2.4584e-02  1.0887e-02  7.3733e-03  0:05:01 1945

  iter  continuity  x-velocity  y-velocity  z-velocity      energy           k       omega     time/iter
    56  2.4721e-02  4.4578e-03  2.3723e-02  4.7824e-01  2.4785e-02  1.1166e-02  7.4000e-03  0:04:00 1944
    57  2.4948e-02  4.4625e-03  2.4502e-02  4.9018e-01  2.5013e-02  1.1148e-02  7.3546e-03  0:09:41 1943
    58  2.5035e-02  4.3989e-03  2.5182e-02  4.9836e-01  2.5094e-02  1.0987e-02  7.2124e-03  0:07:44 1942
    59  2.5012e-02  4.3153e-03  2.5806e-02  5.0559e-01  2.5062e-02  1.1009e-02  7.1849e-03  0:06:11 1941
    60  2.4884e-02  4.2050e-03  2.6462e-02  5.1016e-01  2.4922e-02  1.1242e-02  7.2027e-03  0:04:57 1940
    61  2.4613e-02  4.1097e-03  2.6861e-02  5.1155e-01  2.4638e-02  1.1261e-02  7.1570e-03  0:10:25 1939
    62  2.4452e-02  4.0498e-03  2.7076e-02  5.0844e-01  2.4465e-02  1.1364e-02  7.1333e-03  0:08:20 1938
    63  2.4446e-02  3.9971e-03  2.7342e-02  5.0740e-01  2.4450e-02  1.1284e-02  7.0920e-03  0:06:40 1937
    64  2.4519e-02  3.8805e-03  2.7232e-02  5.0061e-01  2.4518e-02  1.1241e-02  7.1380e-03  0:05:20 1936
    65  2.4553e-02  3.6938e-03  2.7060e-02  4.8839e-01  2.4546e-02  1.1407e-02  7.2332e-03  0:04:16 1935
    66  2.4536e-02  3.5430e-03  2.6934e-02  4.7265e-01  2.4526e-02  1.1548e-02  7.2148e-03  0:09:51 1934

  iter  continuity  x-velocity  y-velocity  z-velocity      energy           k       omega     time/iter
    67  2.4490e-02  3.4407e-03  2.6909e-02  4.5425e-01  2.4477e-02  1.1621e-02  7.2372e-03  0:07:53 1933
    68  2.4417e-02  3.3476e-03  2.6752e-02  4.3474e-01  2.4402e-02  1.1794e-02  7.2642e-03  0:06:18 1932
    69  2.4323e-02  3.3229e-03  2.6391e-02  4.1492e-01  2.4307e-02  1.1826e-02  7.3091e-03  0:05:02 1931
    70  2.4179e-02  3.3278e-03  2.5914e-02  4.0060e-01  2.4162e-02  1.1812e-02  7.3199e-03  0:10:28 1930
    71  2.3972e-02  3.2970e-03  2.5230e-02  4.0680e-01  2.3955e-02  1.1890e-02  7.3591e-03  0:08:22 1929
    72  2.3556e-02  3.2553e-03  2.4379e-02  4.2385e-01  2.3537e-02  1.1934e-02  7.3817e-03  0:06:41 1928
    73  2.2990e-02  3.2808e-03  2.3412e-02  4.6140e-01  2.2968e-02  1.1945e-02  7.3668e-03  0:05:21 1927
    74  2.2253e-02  3.3689e-03  2.2367e-02  5.1331e-01  2.2229e-02  1.1865e-02  7.3832e-03  0:04:17 1926
    75  2.1391e-02  3.4659e-03  2.1254e-02  5.8542e-01  2.1363e-02  1.1929e-02  7.3622e-03  0:09:50 1925
    76  2.0429e-02  3.5437e-03  2.0128e-02  5.1752e-01  2.0397e-02  1.1918e-02  7.3292e-03  0:07:52 1924
    77  1.9410e-02  3.6111e-03  1.9051e-02  5.2757e-01  1.9375e-02  1.1812e-02  7.2987e-03  0:06:17 1923

  iter  continuity  x-velocity  y-velocity  z-velocity      energy           k       omega     time/iter
    78  1.8374e-02  3.6588e-03  1.8045e-02  5.3724e-01  1.8337e-02  1.1750e-02  7.2516e-03  0:05:02 1922
    79  1.7412e-02  3.6922e-03  1.7139e-02  5.3838e-01  1.7375e-02  1.1828e-02  7.2447e-03  0:10:25 1921
    80  1.6575e-02  3.7109e-03  1.6371e-02  5.3065e-01  1.6539e-02  1.1848e-02  7.1856e-03  0:08:20 1920
    81  1.5837e-02  3.6909e-03  1.5547e-02  5.2211e-01  1.5804e-02  1.1831e-02  7.1357e-03  0:06:40 1919
    82  1.5183e-02  3.7025e-03  1.4972e-02  5.2166e-01  1.5153e-02  1.1742e-02  7.0901e-03  0:05:20 1918
    83  1.4673e-02  3.7321e-03  1.4670e-02  5.5420e-01  1.4649e-02  1.1712e-02  7.0497e-03  0:04:16 1917
    84  1.4348e-02  3.7768e-03  1.4570e-02  5.9256e-01  1.4329e-02  1.1692e-02  6.9650e-03  0:09:48 1916
    85  1.4142e-02  3.8319e-03  1.4623e-02  6.0286e-01  1.4129e-02  1.1721e-02  6.8657e-03  0:07:50 1915
    86  1.3997e-02  3.8850e-03  1.4797e-02  5.9310e-01  1.3989e-02  1.1743e-02  6.7858e-03  0:06:16 1914
    87  1.3866e-02  3.9220e-03  1.5045e-02  5.7453e-01  1.3865e-02  1.1766e-02  6.7128e-03  0:05:00 1913
    88  1.3911e-02  3.9613e-03  1.5332e-02  5.7762e-01  1.3914e-02  1.1756e-02  6.6515e-03  0:10:23 1912

  iter  continuity  x-velocity  y-velocity  z-velocity      energy           k       omega     time/iter
    89  1.4088e-02  4.0071e-03  1.5645e-02  5.9416e-01  1.4095e-02  1.1665e-02  6.5823e-03  0:08:18 1911
    90  1.4376e-02  4.0629e-03  1.5947e-02  6.1271e-01  1.4386e-02  1.1583e-02  6.5459e-03  0:06:38 1910
    91  1.4787e-02  4.1187e-03  1.6244e-02  6.2674e-01  1.4800e-02  1.1541e-02  6.5102e-03  0:05:18 1909
    92  1.5269e-02  4.1570e-03  1.6520e-02  6.3765e-01  1.5284e-02  1.1514e-02  6.4816e-03  0:10:36 1908
    93  1.5858e-02  4.1857e-03  1.6767e-02  6.4076e-01  1.5874e-02  1.1520e-02  6.4402e-03  0:08:29 1907
    94  1.6590e-02  4.1999e-03  1.6986e-02  6.3579e-01  1.6608e-02  1.1514e-02  6.4108e-03  0:06:47 1906
    95  1.7477e-02  4.1977e-03  1.7180e-02  6.2674e-01  1.7497e-02  1.1553e-02  6.4045e-03  0:11:46 1905
    96  1.8548e-02  4.1805e-03  1.7347e-02  6.1646e-01  1.8570e-02  1.1612e-02  6.3909e-03  0:09:25 1904
    97  1.9732e-02  4.1445e-03  1.7479e-02  6.0570e-01  1.9756e-02  1.1590e-02  6.3845e-03  0:07:31 1903
    98  2.0964e-02  4.0925e-03  1.7574e-02  5.9673e-01  2.0990e-02  1.1566e-02  6.3636e-03  0:06:01 1902
    99  2.2236e-02  4.0583e-03  1.7609e-02  5.9009e-01  2.2264e-02  1.1557e-02  6.3312e-03  0:11:09 1901

  iter  continuity  x-velocity  y-velocity  z-velocity      energy           k       omega     time/iter
   100  2.3540e-02  4.0105e-03  1.7610e-02  5.8524e-01  2.3569e-02  1.1551e-02  6.2980e-03  0:08:55 1900
   101  2.4859e-02  3.9629e-03  1.7582e-02  5.8198e-01  2.4890e-02  1.1554e-02  6.2691e-03  0:07:08 1899
   102  2.6111e-02  3.9237e-03  1.7490e-02  5.8019e-01  2.6143e-02  1.1521e-02  6.2459e-03  0:05:42 1898
   103  2.7230e-02  3.8995e-03  1.7366e-02  5.7983e-01  2.7263e-02  1.1491e-02  6.2281e-03  0:10:53 1897
   104  2.8106e-02  3.8828e-03  1.7245e-02  5.8017e-01  2.8141e-02  1.1464e-02  6.2046e-03  0:08:42 1896
   105  2.8676e-02  3.8994e-03  1.7103e-02  5.8088e-01  2.8712e-02  1.1412e-02  6.1699e-03  0:06:57 1895
   106  2.8823e-02  3.9454e-03  1.6943e-02  5.8088e-01  2.8860e-02  1.1366e-02  6.1404e-03  0:05:34 1894
   107  2.8518e-02  4.0291e-03  1.6746e-02  5.7969e-01  2.8555e-02  1.1317e-02  6.0933e-03  0:04:27 1893
   108  2.7736e-02  4.1480e-03  1.6495e-02  5.7708e-01  2.7773e-02  1.1245e-02  6.0329e-03  0:09:52 1892
   109  2.6339e-02  4.2885e-03  1.6189e-02  5.7268e-01  2.6375e-02  1.1189e-02  6.0009e-03  0:07:53 1891
   110  2.4372e-02  4.4615e-03  1.5835e-02  5.6650e-01  2.4406e-02  1.1120e-02  5.9690e-03  0:06:18 1890

  iter  continuity  x-velocity  y-velocity  z-velocity      energy           k       omega     time/iter
   111  2.1970e-02  4.6249e-03  1.5373e-02  5.5841e-01  2.1999e-02  1.1082e-02  5.9230e-03  0:05:02 1889
   112  1.9310e-02  4.7156e-03  1.4781e-02  5.4854e-01  1.9335e-02  1.1010e-02  5.8594e-03  0:10:19 1888
   113  1.6559e-02  4.7367e-03  1.4073e-02  5.3726e-01  1.6577e-02  1.0933e-02  5.8029e-03  0:08:15 1887
   114  1.3935e-02  4.6741e-03  1.3278e-02  5.2475e-01  1.3948e-02  1.0842e-02  5.7633e-03  0:06:36 1886
   115  1.1654e-02  4.5257e-03  1.2480e-02  5.1144e-01  1.1660e-02  1.0742e-02  5.6929e-03  0:05:17 1885
   116  9.8514e-03  4.3076e-03  1.1736e-02  4.9713e-01  9.8510e-03  1.0635e-02  5.6005e-03  0:10:30 1884
   117  8.6096e-03  4.0251e-03  1.1081e-02  4.8179e-01  8.6041e-03  1.0545e-02  5.5024e-03  0:08:24 1883
   118  8.0723e-03  3.6907e-03  1.0547e-02  4.6767e-01  8.0635e-03  1.0464e-02  5.4012e-03  0:06:43 1882
   119  8.1673e-03  3.3498e-03  1.0127e-02  4.4836e-01  8.1573e-03  1.0392e-02  5.2835e-03  0:05:22 1881
   120  8.6439e-03  2.9936e-03  9.8138e-03  4.2849e-01  8.6340e-03  1.0317e-02  5.1804e-03  0:10:33 1880
   121  9.2730e-03  2.6478e-03  9.6057e-03  4.0829e-01  9.2637e-03  1.0249e-02  5.0558e-03  0:08:27 1879

  iter  continuity  x-velocity  y-velocity  z-velocity      energy           k       omega     time/iter
   122  9.8690e-03  2.3193e-03  9.4400e-03  3.8862e-01  9.8600e-03  1.0181e-02  4.9291e-03  0:06:45 1878
   123  1.0374e-02  2.0312e-03  9.2918e-03  3.6863e-01  1.0365e-02  1.0112e-02  4.8213e-03  0:05:24 1877
   124  1.0763e-02  1.8072e-03  9.1393e-03  3.4841e-01  1.0754e-02  1.0038e-02  4.7337e-03  0:10:34 1876
   125  1.0947e-02  1.6832e-03  8.9736e-03  3.2851e-01  1.0936e-02  9.9782e-03  4.6655e-03  0:08:27 1875
   126  1.0980e-02  1.6593e-03  8.7937e-03  3.0956e-01  1.0968e-02  9.9319e-03  4.6027e-03  0:06:45 1874
   127  1.0978e-02  1.6984e-03  8.6053e-03  2.9200e-01  1.0965e-02  9.9177e-03  4.5499e-03  0:05:24 1873
   128  1.0875e-02  1.7802e-03  8.4531e-03  2.7697e-01  1.0860e-02  9.9078e-03  4.5159e-03  0:04:19 1872
   129  1.0795e-02  1.9162e-03  8.3588e-03  2.6509e-01  1.0777e-02  9.8869e-03  4.4984e-03  0:09:41 1871
   130  1.0609e-02  2.0409e-03  8.2904e-03  2.5624e-01  1.0588e-02  9.8972e-03  4.4878e-03  0:07:45 1870
   131  1.0627e-02  2.1526e-03  8.2520e-03  2.5112e-01  1.0604e-02  9.8974e-03  4.4829e-03  0:06:12 1869
   132  1.0844e-02  2.2504e-03  8.2746e-03  2.4915e-01  1.0819e-02  9.8898e-03  4.4716e-03  0:04:57 1868

  iter  continuity  x-velocity  y-velocity  z-velocity      energy           k       omega     time/iter
   133  1.1187e-02  2.3458e-03  8.3477e-03  2.4990e-01  1.1161e-02  9.8735e-03  4.4594e-03  0:10:11 1867
   134  1.1609e-02  2.4295e-03  8.4569e-03  2.5300e-01  1.1582e-02  9.8887e-03  4.4499e-03  0:08:09 1866
   135  1.2052e-02  2.4789e-03  8.5837e-03  2.5736e-01  1.2024e-02  9.8856e-03  4.4474e-03  0:06:31 1865
   136  1.2490e-02  2.5011e-03  8.7113e-03  2.6194e-01  1.2461e-02  9.8640e-03  4.4453e-03  0:05:12 1864
   137  1.2893e-02  2.5100e-03  8.8270e-03  2.6683e-01  1.2864e-02  9.8333e-03  4.4421e-03  0:04:10 1863
   138  1.3272e-02  2.5191e-03  8.9343e-03  2.7190e-01  1.3242e-02  9.8132e-03  4.4278e-03  0:09:32 1862
   139  1.3633e-02  2.5250e-03  9.0510e-03  2.7659e-01  1.3603e-02  9.7959e-03  4.4308e-03  0:07:37 1861
   140  1.4051e-02  2.5352e-03  9.2032e-03  2.8110e-01  1.4020e-02  9.7656e-03  4.4194e-03  0:06:06 1860
   141  1.4414e-02  2.5541e-03  9.3621e-03  2.8506e-01  1.4383e-02  9.7426e-03  4.3978e-03  0:04:52 1859
   142  1.4731e-02  2.5762e-03  9.5327e-03  2.8794e-01  1.4699e-02  9.7174e-03  4.3788e-03  0:10:05 1858
   143  1.5028e-02  2.5970e-03  9.7270e-03  2.9054e-01  1.4996e-02  9.6992e-03  4.3614e-03  0:08:04 1857

  iter  continuity  x-velocity  y-velocity  z-velocity      energy           k       omega     time/iter
   144  1.5376e-02  2.6238e-03  9.9500e-03  2.9340e-01  1.5345e-02  9.6967e-03  4.3382e-03  0:06:27 1856
   145  1.5705e-02  2.6557e-03  1.0201e-02  2.9525e-01  1.5673e-02  9.6953e-03  4.3100e-03  0:05:09 1855
   146  1.6012e-02  2.6927e-03  1.0468e-02  2.9687e-01  1.5981e-02  9.6953e-03  4.2805e-03  0:10:18 1854
   147  1.6281e-02  2.7318e-03  1.0768e-02  2.9724e-01  1.6251e-02  9.6847e-03  4.2531e-03  0:08:14 1853
   148  1.6509e-02  2.7694e-03  1.1087e-02  2.9704e-01  1.6479e-02  9.6708e-03  4.2325e-03  0:06:35 1852
   149  1.6659e-02  2.8120e-03  1.1417e-02  2.9601e-01  1.6630e-02  9.6686e-03  4.2117e-03  0:05:16 1851
   150  1.6906e-02  2.8522e-03  1.1762e-02  2.9474e-01  1.6879e-02  9.6720e-03  4.1980e-03  0:10:23 1850
   151  1.7171e-02  2.8866e-03  1.2127e-02  2.9369e-01  1.7145e-02  9.6746e-03  4.1998e-03  0:08:18 1849
   152  1.7519e-02  2.9209e-03  1.2503e-02  2.9385e-01  1.7496e-02  9.6946e-03  4.1967e-03  0:06:38 1848
   153  1.7920e-02  2.9535e-03  1.2888e-02  2.9426e-01  1.7900e-02  9.7325e-03  4.1904e-03  0:05:18 1847
   154  1.8336e-02  2.9840e-03  1.3273e-02  2.9512e-01  1.8318e-02  9.7627e-03  4.1941e-03  0:10:24 1846

  iter  continuity  x-velocity  y-velocity  z-velocity      energy           k       omega     time/iter
   155  1.8735e-02  3.0126e-03  1.3614e-02  2.9677e-01  1.8721e-02  9.7936e-03  4.1822e-03  0:08:19 1845
   156  1.9043e-02  3.0380e-03  1.3947e-02  2.9974e-01  1.9031e-02  9.8067e-03  4.1688e-03  0:06:39 1844
   157  1.9235e-02  3.0529e-03  1.4257e-02  3.0391e-01  1.9226e-02  9.8384e-03  4.1803e-03  0:05:19 1843
   158  1.9308e-02  3.0568e-03  1.4524e-02  3.0991e-01  1.9301e-02  9.8603e-03  4.1915e-03  0:10:23 1842
   159  1.9239e-02  3.0502e-03  1.4760e-02  3.1724e-01  1.9234e-02  9.8710e-03  4.1983e-03  0:08:18 1841
   160  1.9023e-02  3.0375e-03  1.4963e-02  3.2586e-01  1.9020e-02  9.9079e-03  4.2383e-03  0:06:38 1840
   161  1.8652e-02  3.0230e-03  1.5120e-02  3.3514e-01  1.8651e-02  9.9298e-03  4.2623e-03  0:05:19 1839
   162  1.8144e-02  3.0112e-03  1.5214e-02  3.4606e-01  1.8145e-02  9.9182e-03  4.2496e-03  0:10:22 1838
   163  1.7515e-02  3.0016e-03  1.5236e-02  3.5585e-01  1.7517e-02  9.9111e-03  4.2442e-03  0:08:18 1837
   164  1.6776e-02  2.9855e-03  1.5200e-02  3.6770e-01  1.6778e-02  9.9037e-03  4.2728e-03  0:06:38 1836
   165  1.6008e-02  2.9569e-03  1.5066e-02  3.7645e-01  1.6010e-02  9.8597e-03  4.2777e-03  0:05:18 1835

  iter  continuity  x-velocity  y-velocity  z-velocity      energy           k       omega     time/iter
   166  1.5270e-02  2.9177e-03  1.4856e-02  3.9414e-01  1.5271e-02  9.8105e-03  4.2927e-03  0:10:21 1834
   167  1.4650e-02  2.8789e-03  1.4606e-02  3.9849e-01  1.4650e-02  9.7817e-03  4.2939e-03  0:08:17 1833
   168  1.4174e-02  2.8370e-03  1.4306e-02  4.0300e-01  1.4172e-02  9.7192e-03  4.2819e-03  0:06:37 1832
   169  1.3885e-02  2.8025e-03  1.3975e-02  4.1184e-01  1.3882e-02  9.6225e-03  4.2823e-03  0:11:24 1831
   170  1.3794e-02  2.7741e-03  1.3623e-02  4.1892e-01  1.3789e-02  9.5434e-03  4.2935e-03  0:09:07 1830
   171  1.3878e-02  2.7515e-03  1.3262e-02  4.2425e-01  1.3872e-02  9.4717e-03  4.2972e-03  0:07:17 1829
   172  1.4093e-02  2.7220e-03  1.2897e-02  4.2818e-01  1.4085e-02  9.3712e-03  4.2912e-03  0:11:55 1828
   173  1.4395e-02  2.6961e-03  1.2544e-02  4.3300e-01  1.4385e-02  9.3216e-03  4.2835e-03  0:09:32 1827
   174  1.4697e-02  2.6720e-03  1.2200e-02  4.3839e-01  1.4687e-02  9.2478e-03  4.2772e-03  0:07:37 1826
   175  1.4989e-02  2.6537e-03  1.1849e-02  4.4274e-01  1.4977e-02  9.1667e-03  4.2749e-03  0:06:06 1825
   176  1.5311e-02  2.6469e-03  1.1539e-02  4.4860e-01  1.5298e-02  9.0676e-03  4.2590e-03  0:10:57 1824

  iter  continuity  x-velocity  y-velocity  z-velocity      energy           k       omega     time/iter
   177  1.5630e-02  2.6472e-03  1.1255e-02  4.5557e-01  1.5616e-02  8.9897e-03  4.2405e-03  0:08:45 1823
   178  1.5765e-02  2.6493e-03  1.1003e-02  4.6593e-01  1.5750e-02  8.9189e-03  4.2001e-03  0:07:00 1822
   179  1.5676e-02  2.6523e-03  1.0764e-02  4.7694e-01  1.5660e-02  8.8265e-03  4.1926e-03  0:05:36 1821
   180  1.5446e-02  2.6599e-03  1.0569e-02  4.8899e-01  1.5428e-02  8.7157e-03  4.1706e-03  0:10:33 1820
   181  1.5133e-02  2.6754e-03  1.0414e-02  4.9858e-01  1.5114e-02  8.6362e-03  4.1631e-03  0:08:26 1819
   182  1.4769e-02  2.7028e-03  1.0285e-02  5.0786e-01  1.4749e-02  8.5717e-03  4.1403e-03  0:06:44 1818
   183  1.4444e-02  2.7307e-03  1.0150e-02  5.1639e-01  1.4424e-02  8.4928e-03  4.1103e-03  0:05:23 1817
   184  1.3975e-02  2.7438e-03  9.9797e-03  5.1994e-01  1.3954e-02  8.4190e-03  4.0956e-03  0:10:22 1816
   185  1.3518e-02  2.7658e-03  9.9002e-03  5.2086e-01  1.3497e-02  8.3595e-03  4.0810e-03  0:08:17 1815
   186  1.3184e-02  2.7853e-03  9.8568e-03  5.2096e-01  1.3165e-02  8.2908e-03  4.0691e-03  0:06:37 1814
   187  1.2915e-02  2.7903e-03  9.8256e-03  5.1808e-01  1.2897e-02  8.2163e-03  4.0648e-03  0:05:18 1813

  iter  continuity  x-velocity  y-velocity  z-velocity      energy           k       omega     time/iter
   188  1.2749e-02  2.7851e-03  9.8053e-03  5.0937e-01  1.2734e-02  8.1519e-03  4.0485e-03  0:10:16 1812
   189  1.2781e-02  2.7758e-03  9.7872e-03  5.0083e-01  1.2768e-02  8.0756e-03  4.0044e-03  0:08:13 1811
   190  1.3022e-02  2.7616e-03  9.7793e-03  4.8797e-01  1.3013e-02  8.0319e-03  3.9737e-03  0:06:34 1810
   191  1.3382e-02  2.7449e-03  9.7733e-03  4.7420e-01  1.3378e-02  7.9917e-03  3.9501e-03  0:05:15 1809
   192  1.3965e-02  2.7208e-03  9.7640e-03  4.6050e-01  1.3965e-02  7.9831e-03  3.9297e-03  0:10:14 1808
   193  1.4725e-02  2.6862e-03  9.7561e-03  4.4415e-01  1.4729e-02  7.9787e-03  3.8965e-03  0:08:11 1807
   194  1.5671e-02  2.6484e-03  9.7560e-03  4.2454e-01  1.5679e-02  7.9655e-03  3.8695e-03  0:06:32 1806
   195  1.6617e-02  2.6111e-03  9.7555e-03  4.0738e-01  1.6629e-02  7.9562e-03  3.8536e-03  0:05:14 1805
   196  1.7585e-02  2.5765e-03  9.7605e-03  3.9012e-01  1.7599e-02  7.9695e-03  3.8421e-03  0:10:12 1804
   197  1.8575e-02  2.5494e-03  9.7688e-03  3.7341e-01  1.8591e-02  7.9849e-03  3.8313e-03  0:08:09 1803
   198  1.9677e-02  2.5378e-03  9.7821e-03  3.5775e-01  1.9694e-02  7.9988e-03  3.8221e-03  0:06:31 1802

  iter  continuity  x-velocity  y-velocity  z-velocity      energy           k       omega     time/iter
   199  2.0816e-02  2.5524e-03  9.8085e-03  3.4338e-01  2.0834e-02  8.0039e-03  3.8021e-03  0:05:13 1801
   200  2.2032e-02  2.5954e-03  9.8549e-03  3.3165e-01  2.2050e-02  8.0043e-03  3.8032e-03  0:10:10 1800
   201  2.3213e-02  2.6671e-03  9.9192e-03  3.2169e-01  2.3232e-02  8.0091e-03  3.8084e-03  0:08:08 1799
   202  2.4257e-02  2.7784e-03  9.9779e-03  3.1436e-01  2.4275e-02  8.0107e-03  3.7998e-03  0:06:30 1798
   203  2.5058e-02  2.9096e-03  1.0048e-02  3.0978e-01  2.5075e-02  8.0175e-03  3.7977e-03  0:05:12 1797
   204  2.5644e-02  3.0566e-03  1.0139e-02  3.0849e-01  2.5659e-02  8.0171e-03  3.7876e-03  0:10:08 1796
   205  2.6034e-02  3.2083e-03  1.0250e-02  3.0847e-01  2.6048e-02  7.9956e-03  3.7729e-03  0:08:07 1795
   206  2.6122e-02  3.3648e-03  1.0406e-02  3.0845e-01  2.6133e-02  7.9708e-03  3.7519e-03  0:06:29 1794
   207  2.5903e-02  3.5201e-03  1.0543e-02  3.0776e-01  2.5912e-02  7.9548e-03  3.7245e-03  0:05:11 1793
   208  2.5358e-02  3.6734e-03  1.0644e-02  3.0780e-01  2.5364e-02  7.9355e-03  3.6920e-03  0:10:07 1792
   209  2.4376e-02  3.8024e-03  1.0691e-02  3.0739e-01  2.4380e-02  7.9010e-03  3.6744e-03  0:08:05 1791

  iter  continuity  x-velocity  y-velocity  z-velocity      energy           k       omega     time/iter
   210  2.3680e-02  3.9010e-03  1.0643e-02  3.0709e-01  2.3682e-02  7.8619e-03  3.6552e-03  0:06:28 1790
   211  2.2803e-02  4.0336e-03  1.0585e-02  3.0568e-01  2.2804e-02  7.8350e-03  3.6287e-03  0:05:10 1789
   212  2.0792e-02  4.1664e-03  1.0377e-02  3.0347e-01  2.0791e-02  7.8018e-03  3.6042e-03  0:10:06 1788
   213  1.8174e-02  4.2438e-03  1.0082e-02  3.0101e-01  1.8171e-02  7.7396e-03  3.5683e-03  0:08:04 1787
   214  1.5362e-02  4.2326e-03  9.7223e-03  2.9827e-01  1.5359e-02  7.6731e-03  3.5354e-03  0:06:27 1786
   215  1.2717e-02  4.1339e-03  9.3420e-03  2.9622e-01  1.2713e-02  7.6334e-03  3.4971e-03  0:05:10 1785
   216  1.0471e-02  3.9616e-03  9.0086e-03  2.9370e-01  1.0466e-02  7.5892e-03  3.4615e-03  0:10:04 1784
   217  8.7005e-03  3.7417e-03  8.7521e-03  2.9135e-01  8.6958e-03  7.5130e-03  3.4082e-03  0:08:03 1783
   218  7.3558e-03  3.4771e-03  8.5866e-03  2.9018e-01  7.3515e-03  7.4398e-03  3.3705e-03  0:06:26 1782
   219  6.5880e-03  3.2050e-03  8.5005e-03  2.8978e-01  6.5845e-03  7.3629e-03  3.3251e-03  0:11:05 1781
   220  6.4090e-03  2.9255e-03  8.4760e-03  2.8991e-01  6.4064e-03  7.2807e-03  3.2598e-03  0:08:52 1780

  iter  continuity  x-velocity  y-velocity  z-velocity      energy           k       omega     time/iter
   221  6.7112e-03  2.6497e-03  8.4907e-03  2.9096e-01  6.7095e-03  7.2087e-03  3.1990e-03  0:07:05 1779
   222  7.2805e-03  2.3876e-03  8.5247e-03  2.9292e-01  7.2796e-03  7.1464e-03  3.1476e-03  0:05:40 1778
   223  7.9080e-03  2.1574e-03  8.5581e-03  2.9523e-01  7.9076e-03  7.0670e-03  3.1050e-03  0:10:27 1777
   224  8.4873e-03  1.9802e-03  8.5709e-03  2.9740e-01  8.4873e-03  6.9757e-03  3.0751e-03  0:08:21 1776
   225  8.9793e-03  1.8654e-03  8.5580e-03  2.9922e-01  8.9797e-03  6.8796e-03  3.0426e-03  0:06:41 1775
   226  9.3755e-03  1.7989e-03  8.5319e-03  3.0054e-01  9.3763e-03  6.7974e-03  3.0086e-03  0:05:21 1774
   227  9.6672e-03  1.7423e-03  8.4981e-03  3.0108e-01  9.6680e-03  6.7268e-03  2.9854e-03  0:10:11 1773
   228  9.3688e-03  1.7157e-03  8.4594e-03  3.0108e-01  9.3697e-03  6.6558e-03  2.9582e-03  0:08:08 1772
   229  9.0657e-03  1.7317e-03  8.4292e-03  3.0064e-01  9.0663e-03  6.5812e-03  2.9328e-03  0:06:31 1771
   230  8.6979e-03  1.7649e-03  8.3950e-03  2.9942e-01  8.6983e-03  6.5263e-03  2.9051e-03  0:11:06 1770
   231  8.3082e-03  1.8017e-03  8.3683e-03  2.9753e-01  8.3083e-03  6.4753e-03  2.8837e-03  0:08:53 1769

  iter  continuity  x-velocity  y-velocity  z-velocity      energy           k       omega     time/iter
   232  7.9547e-03  1.8371e-03  8.3483e-03  2.9455e-01  7.9544e-03  6.4239e-03  2.8596e-03  0:07:06 1768
   233  7.6051e-03  1.8605e-03  8.3338e-03  2.9059e-01  7.6045e-03  6.3811e-03  2.8390e-03  0:05:41 1767
   234  7.3893e-03  1.8810e-03  8.3300e-03  2.8549e-01  7.3884e-03  6.3322e-03  2.8035e-03  0:10:25 1766
   235  7.2748e-03  1.8895e-03  8.3401e-03  2.7933e-01  7.2737e-03  6.2817e-03  2.7818e-03  0:08:20 1765
   236  7.3842e-03  1.8899e-03  8.3599e-03  2.7220e-01  7.3831e-03  6.2423e-03  2.7622e-03  0:12:33 1764
   237  7.6455e-03  1.8864e-03  8.3909e-03  2.6431e-01  7.6445e-03  6.1996e-03  2.7501e-03  0:10:02 1763
   238  8.0507e-03  1.8869e-03  8.4310e-03  2.5569e-01  8.0500e-03  6.1602e-03  2.7428e-03  0:08:01 1762
   239  8.5899e-03  1.8905e-03  8.4806e-03  2.4645e-01  8.5897e-03  6.1258e-03  2.7424e-03  0:12:17 1761
   240  9.0733e-03  1.8862e-03  8.5401e-03  2.3729e-01  9.0736e-03  6.0851e-03  2.7437e-03  0:09:49 1760
   241  9.5587e-03  1.8843e-03  8.6057e-03  2.2803e-01  9.5596e-03  6.0466e-03  2.7515e-03  0:07:51 1759
   242  1.0146e-02  1.8762e-03  8.6862e-03  2.1873e-01  1.0147e-02  6.0047e-03  2.7547e-03  0:12:08 1758

  iter  continuity  x-velocity  y-velocity  z-velocity      energy           k       omega     time/iter
   243  1.0869e-02  1.8703e-03  8.7721e-03  2.0963e-01  1.0872e-02  5.9634e-03  2.7605e-03  0:09:42 1757
   244  1.1511e-02  1.8588e-03  8.8577e-03  2.0086e-01  1.1515e-02  5.9158e-03  2.7675e-03  0:07:46 1756
   245  1.2125e-02  1.8228e-03  8.9465e-03  1.9257e-01  1.2130e-02  5.8735e-03  2.7793e-03  0:06:12 1755
   246  1.2682e-02  1.7700e-03  9.0393e-03  1.8509e-01  1.2687e-02  5.8227e-03  2.7894e-03  0:10:48 1754
   247  1.3139e-02  1.7211e-03  9.1199e-03  1.7847e-01  1.3146e-02  5.7821e-03  2.8002e-03  0:08:38 1753
   248  1.3456e-02  1.6770e-03  9.1874e-03  1.7320e-01  1.3463e-02  5.7477e-03  2.8120e-03  0:06:55 1752
   249  1.3576e-02  1.6305e-03  9.2426e-03  1.6947e-01  1.3583e-02  5.7126e-03  2.8265e-03  0:05:31 1751
   250  1.3506e-02  1.5823e-03  9.2893e-03  1.6706e-01  1.3515e-02  5.6741e-03  2.8345e-03  0:10:15 1750
   251  1.3256e-02  1.5401e-03  9.3277e-03  1.6753e-01  1.3264e-02  5.6385e-03  2.8400e-03  0:08:12 1749
   252  1.2882e-02  1.5073e-03  9.3554e-03  1.7006e-01  1.2890e-02  5.6072e-03  2.8474e-03  0:06:33 1748
   253  1.2398e-02  1.4786e-03  9.3736e-03  1.7489e-01  1.2407e-02  5.5847e-03  2.8555e-03  0:11:04 1747

  iter  continuity  x-velocity  y-velocity  z-velocity      energy           k       omega     time/iter
   254  1.1827e-02  1.4589e-03  9.3793e-03  1.8254e-01  1.1835e-02  5.5539e-03  2.8644e-03  0:08:51 1746
   255  1.1213e-02  1.4460e-03  9.3774e-03  1.9230e-01  1.1221e-02  5.5424e-03  2.8694e-03  0:07:04 1745
   256  1.0578e-02  1.4378e-03  9.3675e-03  2.0328e-01  1.0585e-02  5.5364e-03  2.8713e-03  0:05:39 1744
   257  9.9384e-03  1.4355e-03  9.3516e-03  2.1538e-01  9.9448e-03  5.5327e-03  2.8719e-03  0:10:20 1743
   258  9.3059e-03  1.4370e-03  9.3292e-03  2.2839e-01  9.3117e-03  5.5300e-03  2.8751e-03  0:08:16 1742
   259  8.7015e-03  1.4401e-03  9.3010e-03  2.4186e-01  8.7066e-03  5.5442e-03  2.8797e-03  0:06:36 1741
   260  8.1363e-03  1.4383e-03  9.2717e-03  2.5561e-01  8.1408e-03  5.5563e-03  2.8830e-03  0:11:05 1740
   261  7.6248e-03  1.4381e-03  9.2425e-03  2.6950e-01  7.6286e-03  5.5668e-03  2.8811e-03  0:08:52 1739
   262  7.1764e-03  1.4432e-03  9.2169e-03  2.8321e-01  7.1796e-03  5.5927e-03  2.8821e-03  0:07:05 1738
   263  6.7767e-03  1.4521e-03  9.1921e-03  2.9657e-01  6.7795e-03  5.6149e-03  2.8810e-03  0:11:27 1737
   264  6.4115e-03  1.4598e-03  9.1686e-03  3.0892e-01  6.4139e-03  5.6279e-03  2.8761e-03  0:09:09 1736

  iter  continuity  x-velocity  y-velocity  z-velocity      energy           k       omega     time/iter
   265  6.0755e-03  1.4663e-03  9.1473e-03  3.2076e-01  6.0775e-03  5.6414e-03  2.8694e-03  0:07:19 1735
   266  5.7509e-03  1.4725e-03  9.1216e-03  3.3163e-01  5.7524e-03  5.6575e-03  2.8586e-03  0:05:51 1734
   267  5.4381e-03  1.4754e-03  9.0991e-03  3.4181e-01  5.4390e-03  5.6780e-03  2.8508e-03  0:10:27 1733
   268  5.1361e-03  1.4762e-03  9.0812e-03  3.5112e-01  5.1363e-03  5.7056e-03  2.8483e-03  0:08:22 1732
   269  4.8363e-03  1.4781e-03  9.0511e-03  3.5946e-01  4.8356e-03  5.7338e-03  2.8440e-03  0:06:41 1731
   270  4.5585e-03  1.4814e-03  9.0224e-03  3.6665e-01  4.5568e-03  5.7736e-03  2.8507e-03  0:11:07 1730
   271  4.2847e-03  1.4847e-03  9.0011e-03  3.7287e-01  4.2820e-03  5.8144e-03  2.8574e-03  0:08:53 1729
   272  4.0247e-03  1.4899e-03  8.9816e-03  3.7801e-01  4.0209e-03  5.8514e-03  2.8643e-03  0:07:06 1728
   273  3.8052e-03  1.4970e-03  8.9628e-03  3.8179e-01  3.8003e-03  5.8834e-03  2.8722e-03  0:05:41 1727
   274  3.6632e-03  1.5059e-03  8.9442e-03  3.8448e-01  3.6572e-03  5.9193e-03  2.8779e-03  0:10:18 1726
   275  3.6378e-03  1.5159e-03  8.9245e-03  3.8626e-01  3.6311e-03  5.9472e-03  2.8857e-03  0:08:14 1725

  iter  continuity  x-velocity  y-velocity  z-velocity      energy           k       omega     time/iter
   276  3.7553e-03  1.5249e-03  8.9049e-03  3.8758e-01  3.7484e-03  5.9717e-03  2.8918e-03  0:06:35 1724
   277  4.0039e-03  1.5294e-03  8.8874e-03  3.8728e-01  3.9974e-03  5.9962e-03  2.8930e-03  0:05:16 1723
   278  4.3922e-03  1.5350e-03  8.8696e-03  3.8613e-01  4.3865e-03  6.0349e-03  2.8976e-03  0:09:57 1722
   279  4.9119e-03  1.5427e-03  8.8504e-03  3.8381e-01  4.9073e-03  6.0775e-03  2.9017e-03  0:07:57 1721
   280  5.5285e-03  1.5508e-03  8.8331e-03  3.8091e-01  5.5253e-03  6.1196e-03  2.9024e-03  0:06:22 1720
   281  6.1942e-03  1.5576e-03  8.8177e-03  3.7747e-01  6.1925e-03  6.1581e-03  2.9072e-03  0:10:49 1719
   282  6.9048e-03  1.5627e-03  8.8025e-03  3.7328e-01  6.9045e-03  6.1905e-03  2.9114e-03  0:08:39 1718
   283  7.5201e-03  1.5672e-03  8.7876e-03  3.6866e-01  7.5208e-03  6.2342e-03  2.9176e-03  0:06:55 1717
   284  8.1372e-03  1.5717e-03  8.7730e-03  3.6314e-01  8.1389e-03  6.2748e-03  2.9265e-03  0:11:15 1716
   285  8.7734e-03  1.5740e-03  8.7578e-03  3.5781e-01  8.7761e-03  6.3017e-03  2.9308e-03  0:09:00 1715
   286  9.4533e-03  1.5757e-03  8.7440e-03  3.5199e-01  9.4570e-03  6.3381e-03  2.9366e-03  0:07:11 1714

  iter  continuity  x-velocity  y-velocity  z-velocity      energy           k       omega     time/iter
   287  1.0174e-02  1.5785e-03  8.7348e-03  3.4603e-01  1.0179e-02  6.3775e-03  2.9401e-03  0:05:45 1713
   288  1.0843e-02  1.5810e-03  8.7254e-03  3.3979e-01  1.0849e-02  6.4322e-03  2.9462e-03  0:10:18 1712
   289  1.1327e-02  1.5838e-03  8.7181e-03  3.3321e-01  1.1333e-02  6.4798e-03  2.9534e-03  0:08:14 1711
   290  1.1678e-02  1.5845e-03  8.7151e-03  3.2699e-01  1.1684e-02  6.5066e-03  2.9579e-03  0:12:17 1710
   291  1.1879e-02  1.5837e-03  8.7163e-03  3.2052e-01  1.1886e-02  6.5485e-03  2.9660e-03  0:09:49 1709
   292  1.1934e-02  1.5845e-03  8.7251e-03  3.1539e-01  1.1941e-02  6.5879e-03  2.9867e-03  0:07:51 1708
   293  1.1948e-02  1.5900e-03  8.7401e-03  3.0958e-01  1.1954e-02  6.6019e-03  2.9961e-03  0:06:17 1707
   294  1.1933e-02  1.6021e-03  8.7601e-03  3.0499e-01  1.1939e-02  6.6290e-03  3.0064e-03  0:10:42 1706
   295  1.1893e-02  1.6205e-03  8.7883e-03  3.0079e-01  1.1899e-02  6.6807e-03  3.0170e-03  0:08:34 1705
   296  1.1855e-02  1.6456e-03  8.8247e-03  2.9691e-01  1.1860e-02  6.7398e-03  3.0305e-03  0:06:51 1704
   297  1.1598e-02  1.6800e-03  8.8683e-03  2.9293e-01  1.1603e-02  6.7883e-03  3.0326e-03  0:11:09 1703

  iter  continuity  x-velocity  y-velocity  z-velocity      energy           k       omega     time/iter
   298  1.1204e-02  1.7225e-03  8.9165e-03  2.9063e-01  1.1208e-02  6.8544e-03  3.0410e-03  0:08:55 1702
   299  1.0769e-02  1.7671e-03  8.9693e-03  2.8711e-01  1.0772e-02  6.9162e-03  3.0486e-03  0:07:08 1701
   300  1.0216e-02  1.8149e-03  9.0234e-03  2.8499e-01  1.0219e-02  6.9725e-03  3.0552e-03  0:11:22 1700
   301  9.5136e-03  1.8681e-03  9.0768e-03  2.8324e-01  9.5155e-03  7.0424e-03  3.0603e-03  0:09:05 1699
   302  8.8247e-03  1.9226e-03  9.1265e-03  2.7974e-01  8.8258e-03  7.1016e-03  3.0614e-03  0:07:16 1698
   303  8.1316e-03  1.9773e-03  9.1682e-03  2.7818e-01  8.1319e-03  7.1535e-03  3.0696e-03  0:05:49 1697
   304  7.4549e-03  2.0269e-03  9.1990e-03  2.7608e-01  7.4544e-03  7.2145e-03  3.0836e-03  0:10:18 1696
   305  6.7965e-03  2.0696e-03  9.2153e-03  2.7459e-01  6.7951e-03  7.2904e-03  3.0905e-03  0:08:14 1695
   306  6.1387e-03  2.1056e-03  9.2173e-03  2.7289e-01  6.1365e-03  7.3526e-03  3.0913e-03  0:06:35 1694
   307  5.5868e-03  2.1305e-03  9.2086e-03  2.7002e-01  5.5839e-03  7.4338e-03  3.0964e-03  0:10:54 1693
   308  4.9817e-03  2.1433e-03  9.1919e-03  2.6709e-01  4.9779e-03  7.5339e-03  3.1094e-03  0:08:43 1692

  iter  continuity  x-velocity  y-velocity  z-velocity      energy           k       omega     time/iter
   309  4.4387e-03  2.1419e-03  9.1716e-03  2.6440e-01  4.4341e-03  7.6190e-03  3.1263e-03  0:06:58 1691
   310  4.0942e-03  2.1245e-03  9.1489e-03  2.6174e-01  4.0890e-03  7.6860e-03  3.1318e-03  0:11:12 1690
   311  3.9592e-03  2.0858e-03  9.1281e-03  2.5804e-01  3.9538e-03  7.7697e-03  3.1259e-03  0:08:58 1689
   312  3.8888e-03  2.0326e-03  9.1072e-03  2.5556e-01  3.8832e-03  7.8229e-03  3.1213e-03  0:07:10 1688
   313  3.8918e-03  1.9712e-03  9.0854e-03  2.5171e-01  3.8862e-03  7.8501e-03  3.1237e-03  0:11:21 1687
   314  3.9270e-03  1.9042e-03  9.0605e-03  2.4832e-01  3.9214e-03  7.8907e-03  3.1233e-03  0:09:05 1686
   315  4.0164e-03  1.8355e-03  9.0302e-03  2.4368e-01  4.0110e-03  7.9203e-03  3.1207e-03  0:07:15 1685
   316  4.1511e-03  1.7695e-03  8.9937e-03  2.3890e-01  4.1460e-03  7.9283e-03  3.1145e-03  0:05:48 1684
   317  4.2971e-03  1.7099e-03  8.9506e-03  2.3453e-01  4.2922e-03  7.9843e-03  3.1122e-03  0:10:15 1683
   318  4.4525e-03  1.6622e-03  8.9029e-03  2.2969e-01  4.4477e-03  8.0584e-03  3.1124e-03  0:08:12 1682
   319  4.6162e-03  1.6267e-03  8.8534e-03  2.2509e-01  4.6116e-03  8.1280e-03  3.1166e-03  0:06:33 1681

  iter  continuity  x-velocity  y-velocity  z-velocity      energy           k       omega     time/iter
   320  4.7564e-03  1.6037e-03  8.8013e-03  2.2086e-01  4.7517e-03  8.2420e-03  3.0997e-03  0:10:50 1680
   321  4.9016e-03  1.5926e-03  8.7451e-03  2.1679e-01  4.8968e-03  8.3380e-03  3.0797e-03  0:08:40 1679
   322  5.0524e-03  1.5897e-03  8.6881e-03  2.1273e-01  5.0474e-03  8.3802e-03  3.0715e-03  0:06:56 1678
   323  5.1875e-03  1.5925e-03  8.6318e-03  2.0956e-01  5.1822e-03  8.4168e-03  3.0597e-03  0:05:32 1677
   324  5.2690e-03  1.5973e-03  8.5765e-03  2.0731e-01  5.2632e-03  8.4426e-03  3.0463e-03  0:10:01 1676
   325  5.3313e-03  1.6008e-03  8.5195e-03  2.0548e-01  5.3251e-03  8.4735e-03  3.0427e-03  0:08:00 1675
   326  5.3409e-03  1.5981e-03  8.4593e-03  2.0456e-01  5.3342e-03  8.4975e-03  3.0360e-03  0:06:24 1674
   327  5.2908e-03  1.5897e-03  8.3940e-03  2.0454e-01  5.2835e-03  8.5025e-03  3.0405e-03  0:10:42 1673
   328  5.1716e-03  1.5763e-03  8.3228e-03  2.0623e-01  5.1636e-03  8.5444e-03  3.0504e-03  0:08:33 1672
   329  5.0516e-03  1.5566e-03  8.2461e-03  2.0965e-01  5.0430e-03  8.6372e-03  3.0584e-03  0:06:50 1671
   330  4.8672e-03  1.5347e-03  8.1633e-03  2.1513e-01  4.8579e-03  8.7201e-03  3.0635e-03  0:11:02 1670

  iter  continuity  x-velocity  y-velocity  z-velocity      energy           k       omega     time/iter
   331  4.6390e-03  1.5083e-03  8.0747e-03  2.2211e-01  4.6290e-03  8.7850e-03  3.0612e-03  0:08:49 1669
   332  4.4461e-03  1.4809e-03  7.9822e-03  2.2994e-01  4.4354e-03  8.8954e-03  3.0651e-03  0:07:03 1668
   333  4.3010e-03  1.4540e-03  7.8880e-03  2.3857e-01  4.2898e-03  8.9514e-03  3.0699e-03  0:11:12 1667
   334  4.2246e-03  1.4310e-03  7.7938e-03  2.4835e-01  4.2131e-03  8.9802e-03  3.0638e-03  0:08:57 1666
   335  4.2219e-03  1.4114e-03  7.7030e-03  2.5848e-01  4.2103e-03  9.0202e-03  3.0632e-03  0:07:09 1665
   336  4.2720e-03  1.3952e-03  7.6138e-03  2.6892e-01  4.2606e-03  9.0553e-03  3.0537e-03  0:11:16 1664
   337  4.3549e-03  1.3835e-03  7.5286e-03  2.7849e-01  4.3438e-03  9.0636e-03  3.0433e-03  0:09:01 1663
   338  4.4691e-03  1.3767e-03  7.4498e-03  2.8680e-01  4.4582e-03  9.1187e-03  3.0362e-03  0:07:12 1662
   339  4.5910e-03  1.3769e-03  7.3738e-03  2.9448e-01  4.5803e-03  9.2402e-03  3.0293e-03  0:05:46 1661
   340  4.6917e-03  1.3825e-03  7.2981e-03  3.0165e-01  4.6812e-03  9.3454e-03  3.0195e-03  0:10:08 1660
   341  4.7745e-03  1.3938e-03  7.2229e-03  3.0785e-01  4.7640e-03  9.4503e-03  3.0146e-03  0:08:06 1659

  iter  continuity  x-velocity  y-velocity  z-velocity      energy           k       omega     time/iter
   342  4.8303e-03  1.4087e-03  7.1396e-03  3.1339e-01  4.8197e-03  9.5160e-03  3.0133e-03  0:06:29 1658
   343  4.8614e-03  1.4266e-03  7.0497e-03  3.1850e-01  4.8507e-03  9.5883e-03  3.0179e-03  0:10:42 1657
   344  4.8737e-03  1.4461e-03  6.9550e-03  3.2312e-01  4.8627e-03  9.5983e-03  3.0111e-03  0:08:34 1656
   345  4.8716e-03  1.4672e-03  6.8457e-03  3.2777e-01  4.8604e-03  9.6549e-03  3.0113e-03  0:12:22 1655
   346  4.8668e-03  1.4901e-03  6.7251e-03  3.3221e-01  4.8554e-03  9.6678e-03  3.0180e-03  0:09:53 1654
   347  4.8537e-03  1.5145e-03  6.6002e-03  3.3512e-01  4.8419e-03  9.7203e-03  3.0241e-03  0:07:54 1653
   348  4.8452e-03  1.5397e-03  6.4826e-03  3.3717e-01  4.8331e-03  9.8263e-03  3.0378e-03  0:11:49 1652
   349  4.8391e-03  1.5644e-03  6.3696e-03  3.3903e-01  4.8267e-03  9.9372e-03  3.0466e-03  0:09:27 1651
   350  4.8397e-03  1.5886e-03  6.2622e-03  3.4139e-01  4.8270e-03  1.0047e-02  3.0585e-03  0:07:33 1650
   351  4.8450e-03  1.6123e-03  6.1659e-03  3.4381e-01  4.8320e-03  1.0121e-02  3.0688e-03  0:11:32 1649
   352  4.8622e-03  1.6364e-03  6.0828e-03  3.4750e-01  4.8490e-03  1.0130e-02  3.0716e-03  0:09:14 1648

  iter  continuity  x-velocity  y-velocity  z-velocity      energy           k       omega     time/iter
   353  4.8933e-03  1.6610e-03  6.0098e-03  3.5109e-01  4.8799e-03  1.0147e-02  3.0787e-03  0:07:23 1647
   354  4.9362e-03  1.6843e-03  5.9583e-03  3.5341e-01  4.9228e-03  1.0162e-02  3.0727e-03  0:05:54 1646
   355  4.9848e-03  1.7087e-03  5.9302e-03  3.5611e-01  4.9714e-03  1.0164e-02  3.0613e-03  0:10:12 1645
   356  5.0388e-03  1.7345e-03  5.9262e-03  3.5830e-01  5.0255e-03  1.0189e-02  3.0591e-03  0:08:09 1644
   357  5.1061e-03  1.7600e-03  5.9455e-03  3.5940e-01  5.0930e-03  1.0248e-02  3.0596e-03  0:06:31 1643
   358  5.1891e-03  1.7847e-03  5.9862e-03  3.6052e-01  5.1761e-03  1.0358e-02  3.0655e-03  0:10:41 1642
   359  5.2879e-03  1.8088e-03  6.0464e-03  3.6149e-01  5.2752e-03  1.0453e-02  3.0730e-03  0:08:33 1641
   360  5.3438e-03  1.8318e-03  6.1194e-03  3.6396e-01  5.3311e-03  1.0509e-02  3.0694e-03  0:06:50 1640
   361  5.4289e-03  1.8525e-03  6.2084e-03  3.6778e-01  5.4163e-03  1.0517e-02  3.0631e-03  0:10:55 1639
   362  5.5415e-03  1.8713e-03  6.3159e-03  3.7358e-01  5.5291e-03  1.0453e-02  3.0656e-03  0:08:44 1638
   363  5.6264e-03  1.8885e-03  6.4411e-03  3.8072e-01  5.6142e-03  1.0395e-02  3.0640e-03  0:06:59 1637

  iter  continuity  x-velocity  y-velocity  z-velocity      energy           k       omega     time/iter
   364  5.7048e-03  1.9039e-03  6.5847e-03  3.8848e-01  5.6928e-03  1.0400e-02  3.0706e-03  0:05:35 1636
   365  5.7630e-03  1.9186e-03  6.7478e-03  3.9740e-01  5.7510e-03  1.0422e-02  3.0690e-03  0:09:55 1635
   366  5.8377e-03  1.9335e-03  6.9284e-03  4.0799e-01  5.8260e-03  1.0441e-02  3.0575e-03  0:07:56 1634
   367  5.9259e-03  1.9488e-03  7.1261e-03  4.2057e-01  5.9143e-03  1.0469e-02  3.0436e-03  0:06:20 1633
   368  6.0226e-03  1.9649e-03  7.3398e-03  4.3502e-01  6.0113e-03  1.0487e-02  3.0251e-03  0:10:30 1632
   369  6.1391e-03  1.9788e-03  7.5673e-03  4.5133e-01  6.1279e-03  1.0502e-02  3.0084e-03  0:08:24 1631
   370  6.2629e-03  1.9892e-03  7.8055e-03  4.6858e-01  6.2519e-03  1.0484e-02  2.9914e-03  0:06:43 1630
   371  6.3770e-03  1.9972e-03  8.0470e-03  4.8688e-01  6.3663e-03  1.0454e-02  2.9827e-03  0:10:48 1629
   372  6.4765e-03  2.0032e-03  8.2914e-03  5.0522e-01  6.4661e-03  1.0405e-02  2.9680e-03  0:08:38 1628
   373  6.5630e-03  2.0089e-03  8.5375e-03  5.2607e-01  6.5529e-03  1.0332e-02  2.9508e-03  0:06:54 1627
   374  6.6462e-03  2.0128e-03  8.7826e-03  5.4892e-01  6.6364e-03  1.0300e-02  2.9265e-03  0:05:31 1626

  iter  continuity  x-velocity  y-velocity  z-velocity      energy           k       omega     time/iter
   375  6.7276e-03  2.0148e-03  9.0252e-03  5.7238e-01  6.7181e-03  1.0260e-02  2.8999e-03  0:09:50 1625
   376  6.8045e-03  2.0151e-03  9.2653e-03  5.9526e-01  6.7953e-03  1.0176e-02  2.8867e-03  0:07:52 1624
   377  6.8773e-03  2.0140e-03  9.5014e-03  6.1742e-01  6.8683e-03  1.0064e-02  2.8818e-03  0:06:17 1623
   378  6.9485e-03  2.0119e-03  9.7315e-03  6.4320e-01  6.9397e-03  1.0020e-02  2.8638e-03  0:10:26 1622
   379  7.0768e-03  2.0082e-03  9.9569e-03  6.7024e-01  7.0682e-03  1.0052e-02  2.8475e-03  0:08:20 1621
   380  7.1450e-03  2.0034e-03  1.0177e-02  6.9673e-01  7.1365e-03  1.0068e-02  2.8370e-03  0:06:40 1620
   381  7.2175e-03  1.9979e-03  1.0393e-02  7.2418e-01  7.2092e-03  1.0065e-02  2.8132e-03  0:10:44 1619
   382  7.2739e-03  1.9925e-03  1.0604e-02  7.5144e-01  7.2657e-03  9.9978e-03  2.7927e-03  0:08:35 1618
   383  7.3236e-03  1.9864e-03  1.0807e-02  7.7844e-01  7.3155e-03  9.8471e-03  2.7708e-03  0:06:51 1617
   384  7.3478e-03  1.9797e-03  1.1004e-02  8.0456e-01  7.3398e-03  9.7335e-03  2.7547e-03  0:10:52 1616
   385  7.3801e-03  1.9728e-03  1.1195e-02  8.2955e-01  7.3721e-03  9.6550e-03  2.7340e-03  0:08:41 1615

  iter  continuity  x-velocity  y-velocity  z-velocity      energy           k       omega     time/iter
   386  7.3974e-03  1.9638e-03  1.1380e-02  8.5159e-01  7.3894e-03  9.5236e-03  2.7134e-03  0:06:57 1614
   387  7.3986e-03  1.9539e-03  1.1557e-02  8.7261e-01  7.3907e-03  9.4027e-03  2.7023e-03  0:10:56 1613
   388  7.3983e-03  1.9442e-03  1.1726e-02  8.9242e-01  7.3904e-03  9.3527e-03  2.6964e-03  0:08:44 1612
   389  7.3884e-03  1.9341e-03  1.1884e-02  9.0965e-01  7.3805e-03  9.3592e-03  2.6806e-03  0:06:59 1611
   390  7.3677e-03  1.9244e-03  1.2033e-02  9.2158e-01  7.3598e-03  9.3879e-03  2.6757e-03  0:10:57 1610
   391  7.3341e-03  1.9153e-03  1.2171e-02  9.3145e-01  7.3261e-03  9.3711e-03  2.6736e-03  0:08:45 1609
   392  7.2846e-03  1.9071e-03  1.2298e-02  9.4093e-01  7.2766e-03  9.2928e-03  2.6659e-03  0:07:00 1608
   393  7.2207e-03  1.8999e-03  1.2416e-02  9.4915e-01  7.2126e-03  9.1801e-03  2.6523e-03  0:10:57 1607
   394  7.1568e-03  1.8941e-03  1.2523e-02  9.5519e-01  7.1485e-03  9.0729e-03  2.6426e-03  0:08:45 1606
   395  7.0802e-03  1.8894e-03  1.2622e-02  9.5737e-01  7.0717e-03  8.9886e-03  2.6245e-03  0:07:00 1605
   396  6.9996e-03  1.8856e-03  1.2713e-02  9.5662e-01  6.9908e-03  8.9004e-03  2.6120e-03  0:05:36 1604

  iter  continuity  x-velocity  y-velocity  z-velocity      energy           k       omega     time/iter
   397  6.9191e-03  1.8828e-03  1.2795e-02  9.5225e-01  6.9100e-03  8.8363e-03  2.6039e-03  0:09:49 1603
   398  6.8340e-03  1.8810e-03  1.2870e-02  9.4349e-01  6.8245e-03  8.7778e-03  2.5915e-03  0:07:51 1602
   399  6.7331e-03  1.8805e-03  1.2941e-02  9.2914e-01  6.7231e-03  8.7399e-03  2.5836e-03  0:06:17 1601
   400  6.6202e-03  1.8812e-03  1.3008e-02  9.1091e-01  6.6097e-03  8.7211e-03  2.5739e-03  0:10:21 1600
   401  6.5020e-03  1.8830e-03  1.3072e-02  8.8900e-01  6.4909e-03  8.6688e-03  2.5598e-03  0:08:17 1599
   402  6.3883e-03  1.8852e-03  1.3134e-02  8.6596e-01  6.3767e-03  8.5835e-03  2.5502e-03  0:06:37 1598
   403  6.2765e-03  1.8879e-03  1.3192e-02  8.4199e-01  6.2644e-03  8.4983e-03  2.5462e-03  0:10:37 1597
   404  6.1654e-03  1.8911e-03  1.3247e-02  8.1739e-01  6.1528e-03  8.4245e-03  2.5382e-03  0:08:29 1596
   405  6.0598e-03  1.8952e-03  1.3299e-02  7.8956e-01  6.0468e-03  8.3872e-03  2.5366e-03  0:06:47 1595
   406  5.9665e-03  1.9001e-03  1.3348e-02  7.5817e-01  5.9531e-03  8.3599e-03  2.5404e-03  0:10:44 1594
   407  5.8720e-03  1.9054e-03  1.3393e-02  7.2392e-01  5.8583e-03  8.3238e-03  2.5393e-03  0:08:35 1593

  iter  continuity  x-velocity  y-velocity  z-velocity      energy           k       omega     time/iter
   408  5.7914e-03  1.9120e-03  1.3432e-02  6.8707e-01  5.7776e-03  8.2945e-03  2.5444e-03  0:06:52 1592
   409  5.7248e-03  1.9197e-03  1.3469e-02  6.4811e-01  5.7108e-03  8.2600e-03  2.5422e-03  0:10:47 1591
   410  5.6839e-03  1.9283e-03  1.3501e-02  6.0687e-01  5.6699e-03  8.2094e-03  2.5453e-03  0:08:38 1590
   411  5.6747e-03  1.9377e-03  1.3531e-02  5.6427e-01  5.6609e-03  8.1648e-03  2.5621e-03  0:06:54 1589
   412  5.6837e-03  1.9483e-03  1.3557e-02  5.2107e-01  5.6701e-03  8.1171e-03  2.5749e-03  0:10:48 1588
   413  5.7135e-03  1.9595e-03  1.3581e-02  4.7775e-01  5.7002e-03  8.0564e-03  2.5805e-03  0:08:38 1587
   414  5.7578e-03  1.9719e-03  1.3606e-02  4.3572e-01  5.7449e-03  7.9994e-03  2.5820e-03  0:06:54 1586
   415  5.8321e-03  1.9855e-03  1.3632e-02  3.9589e-01  5.8196e-03  7.9604e-03  2.5765e-03  0:05:31 1585
   416  5.9427e-03  1.9965e-03  1.3652e-02  3.6276e-01  5.9307e-03  7.9318e-03  2.5689e-03  0:09:42 1584
   417  6.0770e-03  2.0106e-03  1.3677e-02  3.3744e-01  6.0656e-03  7.8853e-03  2.5663e-03  0:07:45 1583
   418  6.2240e-03  2.0263e-03  1.3704e-02  3.2061e-01  6.2132e-03  7.8237e-03  2.5678e-03  0:06:12 1582

  iter  continuity  x-velocity  y-velocity  z-velocity      energy           k       omega     time/iter
   419  6.3807e-03  2.0413e-03  1.3731e-02  3.1545e-01  6.3704e-03  7.7978e-03  2.5736e-03  0:10:13 1581
   420  6.5547e-03  2.0554e-03  1.3756e-02  3.2305e-01  6.5449e-03  7.7775e-03  2.5784e-03  0:08:10 1580
   421  6.7351e-03  2.0684e-03  1.3781e-02  3.3925e-01  6.7258e-03  7.7294e-03  2.5834e-03  0:06:32 1579
   422  6.9159e-03  2.0798e-03  1.3807e-02  3.6296e-01  6.9071e-03  7.6678e-03  2.5892e-03  0:10:29 1578
   423  7.0996e-03  2.0886e-03  1.3833e-02  3.9194e-01  7.0911e-03  7.6419e-03  2.5931e-03  0:08:23 1577
   424  7.2861e-03  2.0950e-03  1.3857e-02  4.2373e-01  7.2780e-03  7.6003e-03  2.5910e-03  0:06:42 1576
   425  7.4850e-03  2.0991e-03  1.3880e-02  4.5701e-01  7.4771e-03  7.5310e-03  2.5946e-03  0:10:36 1575
   426  7.6164e-03  2.1012e-03  1.3901e-02  4.9015e-01  7.6087e-03  7.4673e-03  2.5906e-03  0:08:29 1574
   427  7.7127e-03  2.1014e-03  1.3919e-02  5.2191e-01  7.7050e-03  7.4200e-03  2.5852e-03  0:06:47 1573
   428  7.8197e-03  2.0998e-03  1.3935e-02  5.5420e-01  7.8121e-03  7.3722e-03  2.5779e-03  0:10:40 1572
   429  7.8912e-03  2.0967e-03  1.3951e-02  5.8461e-01  7.8835e-03  7.2996e-03  2.5755e-03  0:08:31 1571

  iter  continuity  x-velocity  y-velocity  z-velocity      energy           k       omega     time/iter
   430  7.9298e-03  2.0925e-03  1.3966e-02  6.1219e-01  7.9219e-03  7.2342e-03  2.5686e-03  0:06:49 1570
   431  7.9615e-03  2.0878e-03  1.3979e-02  6.3497e-01  7.9534e-03  7.1886e-03  2.5508e-03  0:10:41 1569
   432  7.9647e-03  2.0824e-03  1.3991e-02  6.5339e-01  7.9563e-03  7.1354e-03  2.5462e-03  0:08:32 1568
   433  7.9276e-03  2.0749e-03  1.3999e-02  6.6796e-01  7.9189e-03  7.0556e-03  2.5410e-03  0:06:50 1567
   434  7.8934e-03  2.0668e-03  1.4006e-02  6.7927e-01  7.8844e-03  6.9850e-03  2.5304e-03  0:10:41 1566
   435  7.8461e-03  2.0580e-03  1.4009e-02  6.8692e-01  7.8367e-03  6.9292e-03  2.5219e-03  0:08:32 1565
   436  7.7797e-03  2.0489e-03  1.4011e-02  6.9151e-01  7.7699e-03  6.8715e-03  2.5243e-03  0:06:49 1564
   437  7.7153e-03  2.0396e-03  1.4013e-02  6.9362e-01  7.7052e-03  6.8091e-03  2.5258e-03  0:05:27 1563
   438  7.6684e-03  2.0298e-03  1.4013e-02  6.9369e-01  7.6580e-03  6.7510e-03  2.5219e-03  0:09:34 1562
   439  7.6480e-03  2.0195e-03  1.4011e-02  6.9186e-01  7.6373e-03  6.6938e-03  2.5224e-03  0:12:51 1561
   440  7.6602e-03  2.0093e-03  1.4009e-02  6.8813e-01  7.6493e-03  6.6313e-03  2.5250e-03  0:10:17 1560

  iter  continuity  x-velocity  y-velocity  z-velocity      energy           k       omega     time/iter
   441  7.6951e-03  1.9994e-03  1.4009e-02  6.8262e-01  7.6840e-03  6.5592e-03  2.5264e-03  0:08:13 1559
   442  7.7494e-03  1.9910e-03  1.4009e-02  6.7569e-01  7.7382e-03  6.4953e-03  2.5268e-03  0:11:46 1558
   443  7.8308e-03  1.9842e-03  1.4009e-02  6.6750e-01  7.8194e-03  6.4374e-03  2.5287e-03  0:09:24 1557
   444  7.9382e-03  1.9786e-03  1.4010e-02  6.5866e-01  7.9267e-03  6.3837e-03  2.5300e-03  0:07:31 1556
   445  8.0729e-03  1.9753e-03  1.4011e-02  6.4921e-01  8.0614e-03  6.3271e-03  2.5311e-03  0:11:12 1555
   446  8.2146e-03  1.9738e-03  1.4015e-02  6.3851e-01  8.2030e-03  6.2777e-03  2.5298e-03  0:08:57 1554
   447  8.3594e-03  1.9734e-03  1.4020e-02  6.2779e-01  8.3478e-03  6.2304e-03  2.5296e-03  0:07:09 1553
   448  8.5067e-03  1.9758e-03  1.4026e-02  6.1681e-01  8.4952e-03  6.1797e-03  2.5371e-03  0:10:54 1552
   449  8.6382e-03  1.9796e-03  1.4033e-02  6.0552e-01  8.6267e-03  6.1329e-03  2.5376e-03  0:08:43 1551
   450  8.7597e-03  1.9852e-03  1.4040e-02  5.9442e-01  8.7481e-03  6.0887e-03  2.5398e-03  0:06:58 1550
   451  8.8757e-03  1.9935e-03  1.4048e-02  5.8369e-01  8.8640e-03  6.0392e-03  2.5432e-03  0:10:44 1549

  iter  continuity  x-velocity  y-velocity  z-velocity      energy           k       omega     time/iter
   452  8.9839e-03  2.0038e-03  1.4057e-02  5.7359e-01  8.9721e-03  5.9923e-03  2.5467e-03  0:08:35 1548
   453  9.0747e-03  2.0155e-03  1.4068e-02  5.6378e-01  9.0628e-03  5.9491e-03  2.5557e-03  0:06:51 1547
   454  9.1349e-03  2.0287e-03  1.4079e-02  5.5553e-01  9.1228e-03  5.9143e-03  2.5557e-03  0:10:38 1546
   455  9.1548e-03  2.0432e-03  1.4091e-02  5.4827e-01  9.1425e-03  5.8884e-03  2.5565e-03  0:08:30 1545
   456  9.1665e-03  2.0584e-03  1.4103e-02  5.4193e-01  9.1539e-03  5.8528e-03  2.5600e-03  0:06:48 1544
   457  9.1686e-03  2.0736e-03  1.4112e-02  5.3703e-01  9.1558e-03  5.8114e-03  2.5591e-03  0:10:35 1543
   458  9.1819e-03  2.0880e-03  1.4120e-02  5.3334e-01  9.1688e-03  5.7667e-03  2.5580e-03  0:08:27 1542
   459  9.1852e-03  2.0997e-03  1.4127e-02  5.3101e-01  9.1719e-03  5.7274e-03  2.5595e-03  0:06:46 1541
   460  9.1891e-03  2.1086e-03  1.4134e-02  5.2969e-01  9.1756e-03  5.6771e-03  2.5557e-03  0:10:32 1540
   461  9.1966e-03  2.1163e-03  1.4141e-02  5.3023e-01  9.1829e-03  5.6330e-03  2.5585e-03  0:08:26 1539
   462  9.2203e-03  2.1226e-03  1.4147e-02  5.3213e-01  9.2064e-03  5.5951e-03  2.5533e-03  0:06:44 1538

  iter  continuity  x-velocity  y-velocity  z-velocity      energy           k       omega     time/iter
   463  9.2579e-03  2.1273e-03  1.4151e-02  5.3434e-01  9.2438e-03  5.5554e-03  2.5535e-03  0:10:31 1537
   464  9.3171e-03  2.1295e-03  1.4155e-02  5.3573e-01  9.3029e-03  5.5191e-03  2.5574e-03  0:08:24 1536
   465  9.4171e-03  2.1258e-03  1.4158e-02  5.3533e-01  9.4026e-03  5.4933e-03  2.5560e-03  0:06:43 1535
   466  9.5360e-03  2.1161e-03  1.4160e-02  5.3434e-01  9.5213e-03  5.4729e-03  2.5497e-03  0:05:22 1534
   467  9.6514e-03  2.1005e-03  1.4158e-02  5.3169e-01  9.6365e-03  5.4486e-03  2.5463e-03  0:09:24 1533
   468  9.7593e-03  2.0791e-03  1.4155e-02  5.2913e-01  9.7443e-03  5.4200e-03  2.5419e-03  0:07:31 1532
   469  9.8637e-03  2.0537e-03  1.4154e-02  5.3013e-01  9.8484e-03  5.3924e-03  2.5415e-03  0:06:01 1531
   470  9.9433e-03  2.0257e-03  1.4153e-02  5.3120e-01  9.9278e-03  5.3660e-03  2.5396e-03  0:09:54 1530
   471  1.0005e-02  1.9954e-03  1.4154e-02  5.3564e-01  9.9889e-03  5.3378e-03  2.5366e-03  0:07:55 1529
   472  1.0015e-02  1.9643e-03  1.4154e-02  5.3651e-01  9.9988e-03  5.3024e-03  2.5297e-03  0:06:20 1528
   473  1.0010e-02  1.9324e-03  1.4153e-02  5.3663e-01  9.9943e-03  5.2797e-03  2.5246e-03  0:05:04 1527

  iter  continuity  x-velocity  y-velocity  z-velocity      energy           k       omega     time/iter
   474  9.9789e-03  1.9019e-03  1.4151e-02  5.3812e-01  9.9628e-03  5.2579e-03  2.5131e-03  0:09:08 1526
   475  9.9186e-03  1.8754e-03  1.4148e-02  5.3749e-01  9.9023e-03  5.2432e-03  2.5087e-03  0:07:18 1525
   476  9.8396e-03  1.8525e-03  1.4147e-02  5.4010e-01  9.8231e-03  5.2333e-03  2.5098e-03  0:05:50 1524
   477  9.7319e-03  1.8320e-03  1.4143e-02  5.4415e-01  9.7154e-03  5.2226e-03  2.5117e-03  0:09:45 1523
   478  9.6014e-03  1.8137e-03  1.4139e-02  5.5009e-01  9.5848e-03  5.2191e-03  2.5160e-03  0:07:47 1522
   479  9.4597e-03  1.7977e-03  1.4134e-02  5.6535e-01  9.4430e-03  5.2110e-03  2.5158e-03  0:06:14 1521
   480  9.3047e-03  1.7830e-03  1.4129e-02  5.8754e-01  9.2879e-03  5.2094e-03  2.5166e-03  0:10:03 1520
   481  9.1548e-03  1.7691e-03  1.4125e-02  6.1390e-01  9.1380e-03  5.2074e-03  2.5214e-03  0:08:02 1519
   482  9.0058e-03  1.7563e-03  1.4120e-02  6.4149e-01  8.9890e-03  5.2073e-03  2.5204e-03  0:06:25 1518
   483  8.8493e-03  1.7436e-03  1.4114e-02  6.6967e-01  8.8324e-03  5.2121e-03  2.5159e-03  0:10:11 1517
   484  8.7095e-03  1.7323e-03  1.4108e-02  7.0704e-01  8.6925e-03  5.2228e-03  2.5193e-03  0:08:09 1516

  iter  continuity  x-velocity  y-velocity  z-velocity      energy           k       omega     time/iter
   485  8.5979e-03  1.7214e-03  1.4100e-02  7.7397e-01  8.5808e-03  5.2377e-03  2.5190e-03  0:06:31 1515
   486  8.5240e-03  1.7117e-03  1.4091e-02  8.6288e-01  8.5068e-03  5.2526e-03  2.5169e-03  0:10:15 1514
   487  8.4739e-03  1.7026e-03  1.4080e-02  9.5588e-01  8.4565e-03  5.2698e-03  2.5139e-03  0:08:12 1513
   488  8.4306e-03  1.6951e-03  1.4067e-02  1.0457e+00  8.4130e-03  5.2792e-03  2.5074e-03  0:06:33 1512
   489  8.3742e-03  1.6885e-03  1.4053e-02  1.1311e+00  8.3565e-03  5.2937e-03  2.5003e-03  0:05:14 1511
   490  8.2883e-03  1.6830e-03  1.4041e-02  1.2000e+00  8.2705e-03  5.3069e-03  2.4975e-03  0:09:13 1510
   491  8.1732e-03  1.6795e-03  1.4030e-02  1.2520e+00  8.1553e-03  5.3227e-03  2.4992e-03  0:07:22 1509
   492  8.0215e-03  1.6774e-03  1.4020e-02  1.2913e+00  8.0036e-03  5.3472e-03  2.4984e-03  0:10:55 1508
   493  7.8368e-03  1.6762e-03  1.4011e-02  1.3306e+00  7.8188e-03  5.3724e-03  2.5007e-03  0:08:44 1507
   494  7.6110e-03  1.6763e-03  1.4005e-02  1.3530e+00  7.5931e-03  5.3986e-03  2.5011e-03  0:06:59 1506
   495  7.3360e-03  1.6772e-03  1.3997e-02  1.3672e+00  7.3182e-03  5.4259e-03  2.5065e-03  0:05:35 1505

  iter  continuity  x-velocity  y-velocity  z-velocity      energy           k       omega     time/iter
   496  7.0250e-03  1.6788e-03  1.3990e-02  1.3747e+00  7.0073e-03  5.4559e-03  2.5139e-03  0:09:28 1504
   497  6.6890e-03  1.6815e-03  1.3983e-02  1.3762e+00  6.6715e-03  5.4901e-03  2.5229e-03  0:07:34 1503
   498  6.3602e-03  1.6850e-03  1.3976e-02  1.3663e+00  6.3428e-03  5.5267e-03  2.5273e-03  0:06:03 1502
   499  6.0371e-03  1.6890e-03  1.3967e-02  1.3509e+00  6.0199e-03  5.5561e-03  2.5359e-03  0:09:51 1501
   500  5.7263e-03  1.6938e-03  1.3956e-02  1.3445e+00  5.7093e-03  5.5881e-03  2.5468e-03  0:07:52 1500
   501  5.4336e-03  1.6979e-03  1.3941e-02  1.3585e+00  5.4169e-03  5.6246e-03  2.5545e-03  0:11:17 1499
   502  5.1482e-03  1.7023e-03  1.3923e-02  1.3995e+00  5.1316e-03  5.6651e-03  2.5574e-03  0:09:02 1498
   503  4.8763e-03  1.7069e-03  1.3899e-02  1.4564e+00  4.8599e-03  5.7086e-03  2.5660e-03  0:07:13 1497
   504  4.6351e-03  1.7112e-03  1.3871e-02  1.5241e+00  4.6189e-03  5.7543e-03  2.5766e-03  0:10:45 1496
   505  4.4216e-03  1.7158e-03  1.3839e-02  1.5863e+00  4.4056e-03  5.7993e-03  2.5896e-03  0:08:36 1495
   506  4.2475e-03  1.7209e-03  1.3804e-02  1.6327e+00  4.2318e-03  5.8478e-03  2.5969e-03  0:06:52 1494

  iter  continuity  x-velocity  y-velocity  z-velocity      energy           k       omega     time/iter
   507  4.1100e-03  1.7259e-03  1.3767e-02  1.6690e+00  4.0947e-03  5.9053e-03  2.6053e-03  0:10:28 1493
   508  4.0106e-03  1.7319e-03  1.3727e-02  1.6586e+00  3.9957e-03  5.9570e-03  2.6199e-03  0:08:22 1492
   509  3.9456e-03  1.7386e-03  1.3684e-02  1.6494e+00  3.9312e-03  6.0171e-03  2.6337e-03  0:06:42 1491
   510  3.9159e-03  1.7464e-03  1.3637e-02  1.6571e+00  3.9020e-03  6.0840e-03  2.6410e-03  0:10:19 1490
   511  3.9152e-03  1.7558e-03  1.3588e-02  1.6684e+00  3.9018e-03  6.1480e-03  2.6561e-03  0:08:15 1489
   512  3.9453e-03  1.7669e-03  1.3536e-02  1.6639e+00  3.9325e-03  6.2134e-03  2.6789e-03  0:06:36 1488
   513  3.9880e-03  1.7798e-03  1.3481e-02  1.6346e+00  3.9756e-03  6.2984e-03  2.6984e-03  0:10:14 1487
   514  4.0546e-03  1.7943e-03  1.3424e-02  1.6299e+00  4.0427e-03  6.3760e-03  2.7184e-03  0:08:11 1486
   515  4.1298e-03  1.8104e-03  1.3363e-02  1.6487e+00  4.1184e-03  6.4458e-03  2.7379e-03  0:06:32 1485
   516  4.2136e-03  1.8281e-03  1.3300e-02  1.6818e+00  4.2026e-03  6.5225e-03  2.7542e-03  0:05:14 1484
   517  4.3111e-03  1.8472e-03  1.3233e-02  1.7039e+00  4.3005e-03  6.5911e-03  2.7738e-03  0:09:07 1483

  iter  continuity  x-velocity  y-velocity  z-velocity      energy           k       omega     time/iter
   518  4.4638e-03  1.8675e-03  1.3165e-02  1.7383e+00  4.4538e-03  6.6736e-03  2.7904e-03  0:07:18 1482
   519  4.5193e-03  1.8888e-03  1.3095e-02  1.7840e+00  4.5096e-03  6.7525e-03  2.8119e-03  0:05:50 1481
   520  4.5212e-03  1.9112e-03  1.3025e-02  1.8392e+00  4.5116e-03  6.8262e-03  2.8258e-03  0:09:36 1480
   521  4.5352e-03  1.9354e-03  1.2953e-02  1.8785e+00  4.5257e-03  6.8983e-03  2.8330e-03  0:07:40 1479
   522  4.5532e-03  1.9595e-03  1.2881e-02  1.9152e+00  4.5437e-03  6.9733e-03  2.8492e-03  0:06:08 1478
   523  4.6141e-03  1.9837e-03  1.2808e-02  1.9212e+00  4.6048e-03  7.0421e-03  2.8773e-03  0:09:50 1477
   524  4.6704e-03  2.0075e-03  1.2735e-02  1.9001e+00  4.6612e-03  7.1367e-03  2.8972e-03  0:07:51 1476
   525  4.7051e-03  2.0311e-03  1.2662e-02  1.8607e+00  4.6959e-03  7.2282e-03  2.9224e-03  0:06:17 1475
   526  4.7264e-03  2.0546e-03  1.2587e-02  1.8305e+00  4.7172e-03  7.3144e-03  2.9525e-03  0:09:56 1474
   527  4.7532e-03  2.0790e-03  1.2516e-02  1.7838e+00  4.7440e-03  7.3864e-03  2.9675e-03  0:07:57 1473
   528  4.7970e-03  2.1050e-03  1.2449e-02  1.7214e+00  4.7877e-03  7.4567e-03  2.9959e-03  0:06:21 1472

  iter  continuity  x-velocity  y-velocity  z-velocity      energy           k       omega     time/iter
   529  4.8460e-03  2.1314e-03  1.2386e-02  1.6455e+00  4.8367e-03  7.5463e-03  3.0123e-03  0:05:05 1471
   530  4.8948e-03  2.1580e-03  1.2324e-02  1.5743e+00  4.8855e-03  7.6417e-03  3.0254e-03  0:08:57 1470
   531  4.9409e-03  2.1843e-03  1.2266e-02  1.5239e+00  4.9316e-03  7.7113e-03  3.0454e-03  0:07:10 1469
   532  5.0008e-03  2.2107e-03  1.2210e-02  1.4800e+00  4.9916e-03  7.7828e-03  3.0651e-03  0:05:44 1468
   533  5.0546e-03  2.2390e-03  1.2159e-02  1.4514e+00  5.0454e-03  7.8656e-03  3.0750e-03  0:09:28 1467
   534  5.0768e-03  2.2702e-03  1.2107e-02  1.4543e+00  5.0677e-03  7.9440e-03  3.0960e-03  0:07:34 1466
   535  5.0938e-03  2.2997e-03  1.2060e-02  1.4583e+00  5.0847e-03  8.0010e-03  3.1182e-03  0:06:03 1465
   536  5.1383e-03  2.3301e-03  1.2015e-02  1.4670e+00  5.1293e-03  8.0654e-03  3.1381e-03  0:09:43 1464
   537  5.1785e-03  2.3603e-03  1.1972e-02  1.4593e+00  5.1696e-03  8.1490e-03  3.1471e-03  0:07:46 1463
   538  5.2252e-03  2.3854e-03  1.1931e-02  1.4674e+00  5.2164e-03  8.2250e-03  3.1499e-03  0:06:13 1462
   539  5.2881e-03  2.4071e-03  1.1891e-02  1.4629e+00  5.2794e-03  8.2722e-03  3.1597e-03  0:09:50 1461

  iter  continuity  x-velocity  y-velocity  z-velocity      energy           k       omega     time/iter
   540  5.3505e-03  2.4266e-03  1.1852e-02  1.4704e+00  5.3420e-03  8.3205e-03  3.1669e-03  0:07:52 1460
   541  5.4810e-03  2.4435e-03  1.1811e-02  1.4559e+00  5.4728e-03  8.4184e-03  3.1814e-03  0:06:17 1459
   542  5.6128e-03  2.4569e-03  1.1770e-02  1.4421e+00  5.6049e-03  8.4867e-03  3.1978e-03  0:05:02 1458
   543  5.7354e-03  2.4676e-03  1.1730e-02  1.4093e+00  5.7278e-03  8.5643e-03  3.2156e-03  0:08:52 1457
   544  5.8475e-03  2.4734e-03  1.1689e-02  1.3924e+00  5.8401e-03  8.6500e-03  3.2258e-03  0:07:06 1456
   545  5.9635e-03  2.4740e-03  1.1651e-02  1.3588e+00  5.9564e-03  8.7358e-03  3.2268e-03  0:05:40 1455
   546  6.0859e-03  2.4716e-03  1.1616e-02  1.3395e+00  6.0790e-03  8.8137e-03  3.2388e-03  0:09:23 1454
   547  6.2649e-03  2.4655e-03  1.1583e-02  1.3088e+00  6.2582e-03  8.8724e-03  3.2534e-03  0:07:30 1453
   548  6.3827e-03  2.4575e-03  1.1553e-02  1.2881e+00  6.3762e-03  8.9339e-03  3.2717e-03  0:06:00 1452
   549  6.4506e-03  2.4477e-03  1.1522e-02  1.2529e+00  6.4441e-03  9.0008e-03  3.2849e-03  0:04:48 1451
   550  6.4805e-03  2.4363e-03  1.1488e-02  1.2125e+00  6.4741e-03  9.0545e-03  3.3026e-03  0:08:40 1450

  iter  continuity  x-velocity  y-velocity  z-velocity      energy           k       omega     time/iter
   551  6.4613e-03  2.4245e-03  1.1454e-02  1.1777e+00  6.4549e-03  9.1409e-03  3.3058e-03  0:06:56 1449
   552  6.3952e-03  2.4108e-03  1.1419e-02  1.1466e+00  6.3889e-03  9.2257e-03  3.3078e-03  0:05:32 1448
   553  6.2900e-03  2.3946e-03  1.1383e-02  1.1196e+00  6.2838e-03  9.3134e-03  3.2948e-03  0:09:15 1447
   554  6.1653e-03  2.3754e-03  1.1346e-02  1.0950e+00  6.1592e-03  9.4421e-03  3.2862e-03  0:07:24 1446
   555  6.0283e-03  2.3536e-03  1.1308e-02  1.0722e+00  6.0222e-03  9.5326e-03  3.2827e-03  0:05:55 1445
   556  5.8863e-03  2.3293e-03  1.1267e-02  1.0486e+00  5.8803e-03  9.5881e-03  3.2903e-03  0:09:32 1444
   557  5.7563e-03  2.3025e-03  1.1223e-02  1.0305e+00  5.7505e-03  9.6275e-03  3.2907e-03  0:07:38 1443
   558  5.6199e-03  2.2733e-03  1.1176e-02  1.0139e+00  5.6142e-03  9.7112e-03  3.2869e-03  0:06:06 1442
   559  5.5008e-03  2.2448e-03  1.1129e-02  1.0061e+00  5.4953e-03  9.7494e-03  3.2816e-03  0:09:41 1441
   560  5.4013e-03  2.2150e-03  1.1079e-02  1.0056e+00  5.3959e-03  9.8132e-03  3.2727e-03  0:07:44 1440
   561  5.3327e-03  2.1844e-03  1.1029e-02  1.0178e+00  5.3275e-03  9.8892e-03  3.2829e-03  0:06:11 1439

  iter  continuity  x-velocity  y-velocity  z-velocity      energy           k       omega     time/iter
   562  5.2907e-03  2.1541e-03  1.0979e-02  1.0339e+00  5.2855e-03  1.0017e-02  3.2828e-03  0:04:57 1438
   563  5.2646e-03  2.1238e-03  1.0930e-02  1.0681e+00  5.2596e-03  1.0069e-02  3.2833e-03  0:08:45 1437
   564  5.2509e-03  2.0944e-03  1.0878e-02  1.0981e+00  5.2460e-03  1.0114e-02  3.2752e-03  0:06:59 1436
   565  5.2288e-03  2.0677e-03  1.0823e-02  1.1150e+00  5.2240e-03  1.0155e-02  3.2614e-03  0:05:35 1435
   566  5.2175e-03  2.0410e-03  1.0767e-02  1.1183e+00  5.2127e-03  1.0177e-02  3.2427e-03  0:09:15 1434
   567  5.2114e-03  2.0154e-03  1.0706e-02  1.1140e+00  5.2068e-03  1.0145e-02  3.2351e-03  0:07:24 1433
   568  5.2033e-03  1.9913e-03  1.0645e-02  1.0940e+00  5.1987e-03  1.0114e-02  3.2330e-03  0:05:55 1432
   569  5.1885e-03  1.9698e-03  1.0585e-02  1.0722e+00  5.1839e-03  1.0217e-02  3.2361e-03  0:09:30 1431
   570  5.1654e-03  1.9506e-03  1.0524e-02  1.0476e+00  5.1609e-03  1.0286e-02  3.2305e-03  0:07:35 1430
   571  5.1351e-03  1.9341e-03  1.0465e-02  1.0207e+00  5.1306e-03  1.0331e-02  3.2111e-03  0:06:04 1429
   572  5.0996e-03  1.9198e-03  1.0408e-02  1.0031e+00  5.0950e-03  1.0308e-02  3.2039e-03  0:04:51 1428

  iter  continuity  x-velocity  y-velocity  z-velocity      energy           k       omega     time/iter
   573  5.0599e-03  1.9076e-03  1.0350e-02  9.9243e-01  5.0553e-03  1.0356e-02  3.1787e-03  0:08:38 1427
   574  5.0194e-03  1.8978e-03  1.0291e-02  9.8925e-01  5.0146e-03  1.0286e-02  3.1655e-03  0:06:54 1426
   575  4.9805e-03  1.8889e-03  1.0231e-02  9.8972e-01  4.9756e-03  1.0161e-02  3.1608e-03  0:05:31 1425
   576  4.9476e-03  1.8812e-03  1.0172e-02  9.8175e-01  4.9425e-03  1.0138e-02  3.1636e-03  0:09:10 1424
   577  4.9226e-03  1.8743e-03  1.0116e-02  9.7647e-01  4.9172e-03  1.0143e-02  3.1579e-03  0:07:19 1423
   578  4.9012e-03  1.8714e-03  1.0053e-02  9.7952e-01  4.8954e-03  1.0222e-02  3.1375e-03  0:05:51 1422
   579  4.8924e-03  1.8685e-03  9.9984e-03  9.7861e-01  4.8864e-03  1.0238e-02  3.1214e-03  0:09:25 1421
   580  4.8931e-03  1.8617e-03  9.9498e-03  9.7658e-01  4.8868e-03  1.0217e-02  3.1076e-03  0:07:32 1420
   581  4.9058e-03  1.8532e-03  9.9011e-03  9.7967e-01  4.8990e-03  1.0174e-02  3.0947e-03  0:06:01 1419
   582  4.9269e-03  1.8450e-03  9.8462e-03  9.8084e-01  4.9197e-03  1.0111e-02  3.0833e-03  0:09:32 1418
   583  4.9543e-03  1.8378e-03  9.7992e-03  9.5715e-01  4.9467e-03  9.9693e-03  3.0760e-03  0:07:37 1417

  iter  continuity  x-velocity  y-velocity  z-velocity      energy           k       omega     time/iter
   584  4.9846e-03  1.8314e-03  9.7546e-03  9.3738e-01  4.9766e-03  9.8400e-03  3.0657e-03  0:06:06 1416
   585  5.0174e-03  1.8260e-03  9.7142e-03  9.1821e-01  5.0089e-03  9.8172e-03  3.0610e-03  0:04:52 1415
   586  5.0525e-03  1.8223e-03  9.6798e-03  9.0526e-01  5.0436e-03  9.8262e-03  3.0475e-03  0:08:37 1414
   587  5.0957e-03  1.8198e-03  9.6501e-03  8.9963e-01  5.0863e-03  9.8318e-03  3.0407e-03  0:06:53 1413
   588  5.1434e-03  1.8183e-03  9.6282e-03  8.9931e-01  5.1335e-03  9.8199e-03  3.0308e-03  0:05:30 1412
   589  5.1955e-03  1.8180e-03  9.6113e-03  9.0744e-01  5.1851e-03  9.7573e-03  3.0251e-03  0:09:06 1411
   590  5.2531e-03  1.8176e-03  9.6010e-03  9.2256e-01  5.2423e-03  9.6891e-03  3.0083e-03  0:07:17 1410
   591  5.3125e-03  1.8176e-03  9.5989e-03  9.4768e-01  5.3011e-03  9.6415e-03  2.9784e-03  0:05:49 1409
   592  5.3798e-03  1.8187e-03  9.6057e-03  9.8300e-01  5.3678e-03  9.5232e-03  2.9505e-03  0:09:21 1408
   593  5.4500e-03  1.8193e-03  9.6215e-03  1.0180e+00  5.4375e-03  9.3654e-03  2.9289e-03  0:07:28 1407
   594  5.5269e-03  1.8201e-03  9.6491e-03  1.0385e+00  5.5139e-03  9.2673e-03  2.9130e-03  0:05:58 1406

  iter  continuity  x-velocity  y-velocity  z-velocity      energy           k       omega     time/iter
   595  5.6108e-03  1.8208e-03  9.6848e-03  1.0547e+00  5.5974e-03  9.2311e-03  2.9123e-03  0:04:46 1405
   596  5.6996e-03  1.8216e-03  9.7322e-03  1.0756e+00  5.6858e-03  9.2016e-03  2.9125e-03  0:08:30 1404
   597  5.7955e-03  1.8227e-03  9.7915e-03  1.1015e+00  5.7813e-03  9.1614e-03  2.8941e-03  0:06:48 1403
   598  5.8981e-03  1.8241e-03  9.8594e-03  1.1302e+00  5.8835e-03  9.1080e-03  2.8806e-03  0:05:26 1402
   599  6.0041e-03  1.8249e-03  9.9331e-03  1.1524e+00  5.9892e-03  9.0402e-03  2.8627e-03  0:09:01 1401
   600  6.1127e-03  1.8254e-03  1.0014e-02  1.1803e+00  6.0976e-03  8.9383e-03  2.8432e-03  0:07:12 1400
   601  6.2221e-03  1.8269e-03  1.0100e-02  1.2066e+00  6.2067e-03  8.8535e-03  2.8243e-03  0:05:46 1399
   602  6.3335e-03  1.8299e-03  1.0192e-02  1.2333e+00  6.3180e-03  8.7595e-03  2.8081e-03  0:09:16 1398
   603  6.4499e-03  1.8330e-03  1.0292e-02  1.2596e+00  6.4343e-03  8.6402e-03  2.7908e-03  0:07:24 1397
   604  6.7304e-03  1.8744e-03  1.0499e-02  1.2854e+00  6.7151e-03  8.5144e-03  2.7741e-03  0:05:55 1396
   605  6.7205e-03  1.8571e-03  1.0562e-02  1.3093e+00  6.7049e-03  8.4334e-03  2.7622e-03  0:09:23 1395

  iter  continuity  x-velocity  y-velocity  z-velocity      energy           k       omega     time/iter
   606  6.8330e-03  1.8570e-03  1.0672e-02  1.3331e+00  6.8173e-03  8.3576e-03  2.7427e-03  0:07:30 1394
   607  6.9705e-03  1.8603e-03  1.0796e-02  1.3545e+00  6.9548e-03  8.2807e-03  2.7247e-03  0:06:00 1393
   608  7.1470e-03  1.8680e-03  1.0923e-02  1.3708e+00  7.1314e-03  8.1961e-03  2.7134e-03  0:09:26 1392
   609  7.3708e-03  1.8772e-03  1.1061e-02  1.3831e+00  7.3554e-03  8.1214e-03  2.7086e-03  0:07:32 1391
   610  7.6026e-03  1.8860e-03  1.1209e-02  1.3990e+00  7.5874e-03  8.0345e-03  2.7076e-03  0:06:02 1390
   611  7.7459e-03  1.8979e-03  1.1363e-02  1.4148e+00  7.7308e-03  7.9430e-03  2.7054e-03  0:09:27 1389
   612  7.9717e-03  1.9102e-03  1.1524e-02  1.4296e+00  7.9569e-03  7.8615e-03  2.6988e-03  0:07:33 1388
   613  8.2792e-03  1.9240e-03  1.1686e-02  1.4414e+00  8.2650e-03  7.7802e-03  2.6812e-03  0:06:02 1387
   614  8.6154e-03  1.9388e-03  1.1852e-02  1.4606e+00  8.6018e-03  7.6521e-03  2.6659e-03  0:09:27 1386
   615  8.9304e-03  1.9563e-03  1.2021e-02  1.4770e+00  8.9174e-03  7.5182e-03  2.6548e-03  0:07:33 1385
   616  9.2738e-03  1.9746e-03  1.2188e-02  1.4939e+00  9.2614e-03  7.4246e-03  2.6476e-03  0:06:02 1384

  iter  continuity  x-velocity  y-velocity  z-velocity      energy           k       omega     time/iter
   617  9.6532e-03  1.9934e-03  1.2355e-02  1.5080e+00  9.6414e-03  7.3491e-03  2.6413e-03  0:04:50 1383
   618  1.0045e-02  2.0129e-03  1.2520e-02  1.5149e+00  1.0034e-02  7.2736e-03  2.6283e-03  0:08:28 1382
   619  1.0406e-02  2.0318e-03  1.2682e-02  1.5185e+00  1.0395e-02  7.1990e-03  2.6188e-03  0:06:46 1381
   620  1.0696e-02  2.0501e-03  1.2841e-02  1.5261e+00  1.0686e-02  7.1178e-03  2.6054e-03  0:05:25 1380
   621  1.0897e-02  2.0678e-03  1.2995e-02  1.5313e+00  1.0888e-02  7.0019e-03  2.5892e-03  0:08:55 1379
   622  1.1011e-02  2.0852e-03  1.3141e-02  1.5305e+00  1.1002e-02  6.8808e-03  2.5758e-03  0:07:08 1378
   623  1.1034e-02  2.1027e-03  1.3283e-02  1.5254e+00  1.1025e-02  6.7819e-03  2.5637e-03  0:05:42 1377
   624  1.0967e-02  2.1203e-03  1.3422e-02  1.5157e+00  1.0959e-02  6.7093e-03  2.5523e-03  0:09:09 1376
   625  1.0813e-02  2.1384e-03  1.3557e-02  1.5003e+00  1.0804e-02  6.6271e-03  2.5362e-03  0:07:19 1375
   626  1.0573e-02  2.1565e-03  1.3688e-02  1.4820e+00  1.0565e-02  6.5387e-03  2.5200e-03  0:05:51 1374
[...]
  1838  2.0141e-03  1.2392e-03  1.1085e-02  2.3310e-01  2.0083e-03  2.7567e-03  1.3632e-03  0:00:32  162
  1839  2.0152e-03  1.2458e-03  1.1072e-02  2.3246e-01  2.0094e-03  2.7617e-03  1.3651e-03  0:00:25  161
  1840  2.0118e-03  1.2490e-03  1.1058e-02  2.3204e-01  2.0061e-03  2.7677e-03  1.3653e-03  0:00:20  160
  1841  2.0200e-03  1.2514e-03  1.1043e-02  2.3236e-01  2.0144e-03  2.7733e-03  1.3637e-03  0:00:48  159
  1842  2.0396e-03  1.2533e-03  1.1026e-02  2.3218e-01  2.0342e-03  2.7785e-03  1.3634e-03  0:00:38  158
  1843  2.0519e-03  1.2556e-03  1.1010e-02  2.3148e-01  2.0467e-03  2.7831e-03  1.3625e-03  0:00:30  157
  1844  2.0679e-03  1.2596e-03  1.0994e-02  2.3130e-01  2.0628e-03  2.7873e-03  1.3627e-03  0:00:24  156
  1845  2.0847e-03  1.2640e-03  1.0978e-02  2.3039e-01  2.0797e-03  2.7917e-03  1.3615e-03  0:00:50  155
  1846  2.1042e-03  1.2695e-03  1.0962e-02  2.2972e-01  2.0993e-03  2.7983e-03  1.3617e-03  0:00:40  154
  1847  2.1255e-03  1.2766e-03  1.0946e-02  2.2868e-01  2.1208e-03  2.8072e-03  1.3663e-03  0:00:32  153
  1848  2.1466e-03  1.2846e-03  1.0929e-02  2.2736e-01  2.1421e-03  2.8153e-03  1.3719e-03  0:00:25  152

  iter  continuity  x-velocity  y-velocity  z-velocity      energy           k       omega     time/iter
  1849  2.1655e-03  1.2939e-03  1.0911e-02  2.2622e-01  2.1611e-03  2.8243e-03  1.3767e-03  0:00:20  151
  1850  2.1688e-03  1.3009e-03  1.0893e-02  2.2464e-01  2.1646e-03  2.8338e-03  1.3782e-03  0:00:46  150
  1851  2.1691e-03  1.3069e-03  1.0875e-02  2.2273e-01  2.1651e-03  2.8403e-03  1.3796e-03  0:00:36  149
  1852  2.1784e-03  1.3133e-03  1.0857e-02  2.2097e-01  2.1745e-03  2.8470e-03  1.3854e-03  0:00:29  148
  1853  2.1836e-03  1.3205e-03  1.0838e-02  2.1873e-01  2.1799e-03  2.8520e-03  1.3876e-03  0:00:23  147
  1854  2.1913e-03  1.3280e-03  1.0821e-02  2.1620e-01  2.1876e-03  2.8582e-03  1.3886e-03  0:00:18  146
  1855  2.2022e-03  1.3356e-03  1.0803e-02  2.1408e-01  2.1986e-03  2.8662e-03  1.3892e-03  0:00:44  145
  1856  2.2108e-03  1.3432e-03  1.0786e-02  2.1178e-01  2.2074e-03  2.8722e-03  1.3916e-03  0:00:35  144
  1857  2.2206e-03  1.3509e-03  1.0768e-02  2.0978e-01  2.2172e-03  2.8757e-03  1.3912e-03  0:00:27  143
  1858  2.2424e-03  1.3588e-03  1.0749e-02  2.0812e-01  2.2390e-03  2.8799e-03  1.3920e-03  0:00:22  142
  1859  2.2780e-03  1.3664e-03  1.0729e-02  2.0628e-01  2.2746e-03  2.8824e-03  1.3943e-03  0:00:46  141

  iter  continuity  x-velocity  y-velocity  z-velocity      energy           k       omega     time/iter
  1860  2.3129e-03  1.3737e-03  1.0710e-02  2.0469e-01  2.3096e-03  2.8873e-03  1.3979e-03  0:00:36  140
  1861  2.3477e-03  1.3797e-03  1.0691e-02  2.0310e-01  2.3444e-03  2.8928e-03  1.4024e-03  0:00:29  139
  1862  2.3777e-03  1.3822e-03  1.0673e-02  2.0191e-01  2.3745e-03  2.8978e-03  1.4031e-03  0:00:23  138
  1863  2.4228e-03  1.3821e-03  1.0654e-02  2.0093e-01  2.4196e-03  2.9038e-03  1.4048e-03  0:00:46  137
  1864  2.4897e-03  1.3835e-03  1.0636e-02  1.9976e-01  2.4866e-03  2.9084e-03  1.4075e-03  0:00:36  136
  1865  2.5472e-03  1.3851e-03  1.0619e-02  1.9864e-01  2.5441e-03  2.9130e-03  1.4103e-03  0:00:29  135
  1866  2.5759e-03  1.3871e-03  1.0602e-02  1.9682e-01  2.5729e-03  2.9170e-03  1.4125e-03  0:00:23  134
  1867  2.6030e-03  1.3893e-03  1.0585e-02  1.9467e-01  2.6000e-03  2.9186e-03  1.4148e-03  0:00:45  133
  1868  2.6347e-03  1.3915e-03  1.0565e-02  1.9215e-01  2.6318e-03  2.9250e-03  1.4166e-03  0:00:35  132
  1869  2.6745e-03  1.3943e-03  1.0546e-02  1.9000e-01  2.6716e-03  2.9291e-03  1.4198e-03  0:00:28  131
  1870  2.7084e-03  1.3974e-03  1.0526e-02  1.8758e-01  2.7057e-03  2.9304e-03  1.4237e-03  0:00:22  130

  iter  continuity  x-velocity  y-velocity  z-velocity      energy           k       omega     time/iter
  1871  2.7135e-03  1.4003e-03  1.0506e-02  1.8461e-01  2.7108e-03  2.9355e-03  1.4225e-03  0:00:18  129
  1872  2.7137e-03  1.4025e-03  1.0486e-02  1.8201e-01  2.7111e-03  2.9387e-03  1.4260e-03  0:00:40  128
  1873  2.7211e-03  1.4045e-03  1.0464e-02  1.7935e-01  2.7186e-03  2.9416e-03  1.4309e-03  0:00:32  127
  1874  2.7456e-03  1.4078e-03  1.0443e-02  1.7676e-01  2.7432e-03  2.9422e-03  1.4336e-03  0:00:25  126
  1875  2.7507e-03  1.4118e-03  1.0422e-02  1.7421e-01  2.7483e-03  2.9446e-03  1.4345e-03  0:00:20  125
  1876  2.7509e-03  1.4161e-03  1.0402e-02  1.7169e-01  2.7486e-03  2.9518e-03  1.4364e-03  0:00:41  124
  1877  2.7446e-03  1.4212e-03  1.0383e-02  1.6945e-01  2.7423e-03  2.9566e-03  1.4384e-03  0:00:32  123
  1878  2.7695e-03  1.4270e-03  1.0365e-02  1.6768e-01  2.7671e-03  2.9563e-03  1.4378e-03  0:00:26  122
  1879  2.7687e-03  1.4331e-03  1.0349e-02  1.6613e-01  2.7663e-03  2.9625e-03  1.4310e-03  0:00:20  121
  1880  2.7773e-03  1.4393e-03  1.0336e-02  1.6467e-01  2.7749e-03  2.9652e-03  1.4255e-03  0:00:16  120
  1881  2.7929e-03  1.4459e-03  1.0324e-02  1.6407e-01  2.7905e-03  2.9657e-03  1.4229e-03  0:00:37  119

  iter  continuity  x-velocity  y-velocity  z-velocity      energy           k       omega     time/iter
  1882  2.8375e-03  1.4524e-03  1.0314e-02  1.6357e-01  2.8350e-03  2.9682e-03  1.4213e-03  0:00:29  118
  1883  2.8653e-03  1.4585e-03  1.0304e-02  1.6336e-01  2.8628e-03  2.9714e-03  1.4210e-03  0:00:23  117
  1884  2.8777e-03  1.4641e-03  1.0296e-02  1.6324e-01  2.8751e-03  2.9755e-03  1.4192e-03  0:00:18  116
  1885  2.8792e-03  1.4678e-03  1.0289e-02  1.6304e-01  2.8766e-03  2.9809e-03  1.4200e-03  0:00:14  115
  1886  2.9023e-03  1.4677e-03  1.0282e-02  1.6251e-01  2.8997e-03  2.9836e-03  1.4197e-03  0:00:34  114
  1887  2.9129e-03  1.4674e-03  1.0273e-02  1.6219e-01  2.9103e-03  2.9860e-03  1.4192e-03  0:00:27  113
  1888  2.9105e-03  1.4669e-03  1.0263e-02  1.6163e-01  2.9079e-03  2.9891e-03  1.4214e-03  0:00:22  112
  1889  2.9054e-03  1.4661e-03  1.0252e-02  1.6049e-01  2.9028e-03  2.9922e-03  1.4222e-03  0:00:17  111
  1890  2.9063e-03  1.4653e-03  1.0241e-02  1.5931e-01  2.9037e-03  2.9998e-03  1.4239e-03  0:00:36  110
  1891  2.9080e-03  1.4640e-03  1.0230e-02  1.5819e-01  2.9054e-03  3.0081e-03  1.4246e-03  0:00:28  109
  1892  2.9099e-03  1.4620e-03  1.0219e-02  1.5663e-01  2.9074e-03  3.0154e-03  1.4251e-03  0:00:22  108

  iter  continuity  x-velocity  y-velocity  z-velocity      energy           k       omega     time/iter
  1893  2.9001e-03  1.4593e-03  1.0207e-02  1.5498e-01  2.8976e-03  3.0233e-03  1.4253e-03  0:00:18  107
  1894  2.8916e-03  1.4559e-03  1.0194e-02  1.5282e-01  2.8892e-03  3.0300e-03  1.4272e-03  0:00:14  106
  1895  2.8775e-03  1.4516e-03  1.0181e-02  1.5075e-01  2.8752e-03  3.0393e-03  1.4271e-03  0:00:32  105
  1896  2.8665e-03  1.4476e-03  1.0167e-02  1.4902e-01  2.8643e-03  3.0520e-03  1.4242e-03  0:00:25  104
  1897  2.8566e-03  1.4445e-03  1.0153e-02  1.4757e-01  2.8545e-03  3.0654e-03  1.4279e-03  0:00:20  103
  1898  2.8631e-03  1.4423e-03  1.0140e-02  1.4636e-01  2.8610e-03  3.0781e-03  1.4311e-03  0:00:16  102
  1899  2.8859e-03  1.4410e-03  1.0126e-02  1.4517e-01  2.8839e-03  3.0919e-03  1.4327e-03  0:00:13  101
  1900  2.9089e-03  1.4406e-03  1.0115e-02  1.4395e-01  2.9069e-03  3.1060e-03  1.4357e-03  0:00:30  100
  1901  2.9379e-03  1.4409e-03  1.0106e-02  1.4249e-01  2.9360e-03  3.1215e-03  1.4392e-03  0:00:24   99
  1902  2.9815e-03  1.4421e-03  1.0098e-02  1.4159e-01  2.9796e-03  3.1348e-03  1.4412e-03  0:00:19   98
  1903  3.0405e-03  1.4435e-03  1.0093e-02  1.4088e-01  3.0387e-03  3.1482e-03  1.4421e-03  0:00:15   97

  iter  continuity  x-velocity  y-velocity  z-velocity      energy           k       omega     time/iter
  1904  3.1084e-03  1.4449e-03  1.0089e-02  1.4065e-01  3.1065e-03  3.1615e-03  1.4416e-03  0:00:31   96
  1905  3.1715e-03  1.4456e-03  1.0087e-02  1.4024e-01  3.1697e-03  3.1766e-03  1.4416e-03  0:00:25   95
  1906  3.2381e-03  1.4454e-03  1.0085e-02  1.3981e-01  3.2363e-03  3.1949e-03  1.4438e-03  0:00:19   94
  1907  3.3486e-03  1.4443e-03  1.0084e-02  1.3961e-01  3.3469e-03  3.2109e-03  1.4456e-03  0:00:15   93
  1908  3.4913e-03  1.4417e-03  1.0083e-02  1.3972e-01  3.4897e-03  3.2244e-03  1.4471e-03  0:00:31   92
  1909  3.5707e-03  1.4376e-03  1.0082e-02  1.3968e-01  3.5692e-03  3.2385e-03  1.4503e-03  0:00:24   91
  1910  3.6642e-03  1.4316e-03  1.0081e-02  1.3933e-01  3.6627e-03  3.2551e-03  1.4541e-03  0:00:19   90
  1911  3.7515e-03  1.4255e-03  1.0079e-02  1.3878e-01  3.7501e-03  3.2720e-03  1.4590e-03  0:00:15   89
  1912  3.8323e-03  1.4193e-03  1.0077e-02  1.3887e-01  3.8309e-03  3.2894e-03  1.4655e-03  0:00:12   88
  1913  3.9159e-03  1.4126e-03  1.0074e-02  1.3905e-01  3.9147e-03  3.3064e-03  1.4737e-03  0:00:27   87
  1914  3.9837e-03  1.4052e-03  1.0070e-02  1.3934e-01  3.9825e-03  3.3200e-03  1.4782e-03  0:00:21   86

  iter  continuity  x-velocity  y-velocity  z-velocity      energy           k       omega     time/iter
  1915  4.0408e-03  1.3974e-03  1.0064e-02  1.3905e-01  4.0396e-03  3.3355e-03  1.4777e-03  0:00:17   85
  1916  4.0807e-03  1.3894e-03  1.0057e-02  1.3909e-01  4.0796e-03  3.3531e-03  1.4792e-03  0:00:13   84
  1917  4.1154e-03  1.3810e-03  1.0049e-02  1.3927e-01  4.1144e-03  3.3710e-03  1.4810e-03  0:00:11   83
  1918  4.1153e-03  1.3732e-03  1.0040e-02  1.3960e-01  4.1144e-03  3.3859e-03  1.4815e-03  0:00:25   82
  1919  4.1035e-03  1.3661e-03  1.0030e-02  1.3991e-01  4.1027e-03  3.3971e-03  1.4793e-03  0:00:20   81
  1920  4.0971e-03  1.3602e-03  1.0019e-02  1.3991e-01  4.0963e-03  3.4114e-03  1.4857e-03  0:00:15   80
  1921  4.0510e-03  1.3552e-03  1.0008e-02  1.3986e-01  4.0502e-03  3.4276e-03  1.4879e-03  0:00:12   79
  1922  3.9752e-03  1.3506e-03  9.9976e-03  1.3963e-01  3.9743e-03  3.4405e-03  1.4913e-03  0:00:10   78
  1923  3.8844e-03  1.3469e-03  9.9892e-03  1.3946e-01  3.8835e-03  3.4497e-03  1.4955e-03  0:00:08   77
  1924  3.7825e-03  1.3441e-03  9.9818e-03  1.3948e-01  3.7816e-03  3.4605e-03  1.4978e-03  0:00:21   76
  1925  3.6849e-03  1.3419e-03  9.9755e-03  1.3974e-01  3.6840e-03  3.4732e-03  1.4958e-03  0:00:17   75

  iter  continuity  x-velocity  y-velocity  z-velocity      energy           k       omega     time/iter
  1926  3.5915e-03  1.3402e-03  9.9703e-03  1.3998e-01  3.5904e-03  3.4847e-03  1.4947e-03  0:00:13   74
  1927  3.4981e-03  1.3381e-03  9.9659e-03  1.4024e-01  3.4970e-03  3.4957e-03  1.4916e-03  0:00:10   73
  1928  3.4104e-03  1.3362e-03  9.9621e-03  1.4054e-01  3.4092e-03  3.5060e-03  1.4918e-03  0:00:08   72
  1929  3.3324e-03  1.3333e-03  9.9583e-03  1.4077e-01  3.3311e-03  3.5116e-03  1.4950e-03  0:00:21   71
  1930  3.2743e-03  1.3298e-03  9.9548e-03  1.4122e-01  3.2730e-03  3.5081e-03  1.4946e-03  0:00:16   70
  1931  3.2019e-03  1.3255e-03  9.9523e-03  1.4148e-01  3.2005e-03  3.5308e-03  1.4916e-03  0:00:13   69
  1932  3.1225e-03  1.3209e-03  9.9490e-03  1.4193e-01  3.1210e-03  3.5542e-03  1.4903e-03  0:00:10   68
  1933  3.0710e-03  1.3158e-03  9.9445e-03  1.4250e-01  3.0694e-03  3.5675e-03  1.4865e-03  0:00:08   67
  1934  3.0399e-03  1.3102e-03  9.9387e-03  1.4313e-01  3.0383e-03  3.5804e-03  1.4838e-03  0:00:20   66
  1935  3.0037e-03  1.3040e-03  9.9322e-03  1.4371e-01  3.0020e-03  3.5935e-03  1.4878e-03  0:00:15   65
  1936  2.9788e-03  1.2972e-03  9.9252e-03  1.4425e-01  2.9771e-03  3.5995e-03  1.4984e-03  0:00:12   64

  iter  continuity  x-velocity  y-velocity  z-velocity      energy           k       omega     time/iter
  1937  2.9589e-03  1.2888e-03  9.9173e-03  1.4489e-01  2.9572e-03  3.6012e-03  1.4977e-03  0:00:10   63
  1938  2.9456e-03  1.2800e-03  9.9078e-03  1.4586e-01  2.9438e-03  3.6312e-03  1.4947e-03  0:00:08   62
  1939  2.9595e-03  1.2710e-03  9.8965e-03  1.4734e-01  2.9578e-03  3.6571e-03  1.4926e-03  0:00:18   61
  1940  2.9924e-03  1.2617e-03  9.8838e-03  1.4946e-01  2.9908e-03  3.6720e-03  1.4891e-03  0:00:14   60
  1941  3.0249e-03  1.2523e-03  9.8699e-03  1.5186e-01  3.0233e-03  3.6843e-03  1.4827e-03  0:00:11   59
  1942  3.0536e-03  1.2434e-03  9.8550e-03  1.5470e-01  3.0520e-03  3.6900e-03  1.4787e-03  0:00:09   58
  1943  3.0774e-03  1.2347e-03  9.8398e-03  1.5799e-01  3.0758e-03  3.6891e-03  1.4822e-03  0:00:07   57
  1944  3.0925e-03  1.2263e-03  9.8256e-03  1.6141e-01  3.0909e-03  3.6875e-03  1.4859e-03  0:00:05   56
  1945  3.1023e-03  1.2184e-03  9.8122e-03  1.6508e-01  3.1008e-03  3.7013e-03  1.4862e-03  0:00:15   55
  1946  3.1056e-03  1.2106e-03  9.7995e-03  1.6936e-01  3.1040e-03  3.7257e-03  1.4876e-03  0:00:12   54
  1947  3.0967e-03  1.2029e-03  9.7879e-03  1.7424e-01  3.0950e-03  3.7459e-03  1.4860e-03  0:00:09   53

  iter  continuity  x-velocity  y-velocity  z-velocity      energy           k       omega     time/iter
  1948  3.0764e-03  1.1958e-03  9.7769e-03  1.7994e-01  3.0747e-03  3.7564e-03  1.4830e-03  0:00:07   52
  1949  3.0484e-03  1.1884e-03  9.7660e-03  1.8630e-01  3.0466e-03  3.7623e-03  1.4761e-03  0:00:06   51
  1950  3.0111e-03  1.1812e-03  9.7555e-03  1.9344e-01  3.0093e-03  3.7588e-03  1.4707e-03  0:00:15   50
  1951  2.9658e-03  1.1746e-03  9.7455e-03  2.0095e-01  2.9638e-03  3.7480e-03  1.4673e-03  0:00:11   49
  1952  2.9077e-03  1.1681e-03  9.7366e-03  2.0900e-01  2.9056e-03  3.7341e-03  1.4676e-03  0:00:09   48
  1953  2.8403e-03  1.1622e-03  9.7290e-03  2.1765e-01  2.8381e-03  3.7432e-03  1.4659e-03  0:00:07   47
  1954  2.7667e-03  1.1564e-03  9.7218e-03  2.2681e-01  2.7645e-03  3.7587e-03  1.4609e-03  0:00:05   46
  1955  2.6911e-03  1.1515e-03  9.7154e-03  2.3637e-01  2.6888e-03  3.7711e-03  1.4566e-03  0:00:13   45
  1956  2.6172e-03  1.1461e-03  9.7089e-03  2.4669e-01  2.6148e-03  3.7755e-03  1.4517e-03  0:00:10   44
  1957  2.5469e-03  1.1403e-03  9.7015e-03  2.5780e-01  2.5443e-03  3.7708e-03  1.4484e-03  0:00:08   43
  1958  2.4830e-03  1.1344e-03  9.6937e-03  2.6916e-01  2.4803e-03  3.7626e-03  1.4395e-03  0:00:06   42

  iter  continuity  x-velocity  y-velocity  z-velocity      energy           k       omega     time/iter
  1959  2.4266e-03  1.1283e-03  9.6851e-03  2.8087e-01  2.4239e-03  3.7454e-03  1.4338e-03  0:00:05   41
  1960  2.3799e-03  1.1225e-03  9.6755e-03  2.9281e-01  2.3771e-03  3.7224e-03  1.4307e-03  0:00:04   40
  1961  2.3429e-03  1.1175e-03  9.6650e-03  3.0504e-01  2.3400e-03  3.6990e-03  1.4272e-03  0:00:11   39
  1962  2.3158e-03  1.1130e-03  9.6540e-03  3.1740e-01  2.3128e-03  3.6970e-03  1.4262e-03  0:00:08   38
  1963  2.2960e-03  1.1090e-03  9.6425e-03  3.2976e-01  2.2930e-03  3.6947e-03  1.4269e-03  0:00:07   37
  1964  2.2819e-03  1.1058e-03  9.6310e-03  3.4230e-01  2.2787e-03  3.6908e-03  1.4222e-03  0:00:05   36
  1965  2.2693e-03  1.1031e-03  9.6197e-03  3.5512e-01  2.2660e-03  3.6852e-03  1.4175e-03  0:00:04   35
  1966  2.2582e-03  1.1008e-03  9.6097e-03  3.6891e-01  2.2548e-03  3.6741e-03  1.4138e-03  0:00:10   34
  1967  2.2481e-03  1.0993e-03  9.6004e-03  3.7766e-01  2.2446e-03  3.6569e-03  1.4066e-03  0:00:08   33
  1968  2.2395e-03  1.0977e-03  9.5923e-03  3.8766e-01  2.2359e-03  3.6362e-03  1.4034e-03  0:00:06   32
  1969  2.2331e-03  1.0961e-03  9.5844e-03  3.9700e-01  2.2294e-03  3.6095e-03  1.4027e-03  0:00:05   31

  iter  continuity  x-velocity  y-velocity  z-velocity      energy           k       omega     time/iter
  1970  2.2282e-03  1.0952e-03  9.5777e-03  4.0582e-01  2.2243e-03  3.5752e-03  1.3995e-03  0:00:04   30
  1971  2.2204e-03  1.0948e-03  9.5720e-03  4.1424e-01  2.2164e-03  3.5537e-03  1.3953e-03  0:00:09   29
  1972  2.2130e-03  1.0950e-03  9.5676e-03  4.2228e-01  2.2088e-03  3.5460e-03  1.3909e-03  0:00:07   28
  1973  2.2052e-03  1.0958e-03  9.5646e-03  4.2970e-01  2.2009e-03  3.5383e-03  1.3860e-03  0:00:05   27
  1974  2.1966e-03  1.0972e-03  9.5630e-03  4.3659e-01  2.1921e-03  3.5315e-03  1.3831e-03  0:00:04   26
  1975  2.1868e-03  1.0989e-03  9.5629e-03  4.4277e-01  2.1822e-03  3.5218e-03  1.3818e-03  0:00:03   25
  1976  2.1761e-03  1.1010e-03  9.5646e-03  4.4818e-01  2.1714e-03  3.5104e-03  1.3808e-03  0:00:07   24
  1977  2.1663e-03  1.1029e-03  9.5674e-03  4.5260e-01  2.1614e-03  3.4968e-03  1.3777e-03  0:00:05   23
  1978  2.1581e-03  1.1052e-03  9.5712e-03  4.5589e-01  2.1531e-03  3.4754e-03  1.3705e-03  0:00:04   22
  1979  2.1526e-03  1.1085e-03  9.5750e-03  4.5837e-01  2.1475e-03  3.4524e-03  1.3666e-03  0:00:03   21
  1980  2.1511e-03  1.1128e-03  9.5780e-03  4.5931e-01  2.1459e-03  3.4296e-03  1.3612e-03  0:00:02   20

  iter  continuity  x-velocity  y-velocity  z-velocity      energy           k       omega     time/iter
  1981  2.1541e-03  1.1176e-03  9.5803e-03  4.5929e-01  2.1488e-03  3.4074e-03  1.3585e-03  0:00:02   19
  1982  2.1615e-03  1.1228e-03  9.5822e-03  4.5818e-01  2.1561e-03  3.3909e-03  1.3568e-03  0:00:05   18
  1983  2.1752e-03  1.1281e-03  9.5845e-03  4.5592e-01  2.1698e-03  3.3797e-03  1.3584e-03  0:00:04   17
  1984  2.1936e-03  1.1337e-03  9.5883e-03  4.5159e-01  2.1881e-03  3.3687e-03  1.3606e-03  0:00:03   16
  1985  2.2108e-03  1.1394e-03  9.5944e-03  4.4644e-01  2.2053e-03  3.3577e-03  1.3620e-03  0:00:02   15
  1986  2.2310e-03  1.1453e-03  9.6023e-03  4.3946e-01  2.2254e-03  3.3472e-03  1.3645e-03  0:00:02   14
  1987  2.2554e-03  1.1511e-03  9.6127e-03  4.3057e-01  2.2498e-03  3.3378e-03  1.3654e-03  0:00:04   13
  1988  2.2844e-03  1.1568e-03  9.6239e-03  4.2040e-01  2.2788e-03  3.3253e-03  1.3674e-03  0:00:03   12
  1989  2.3124e-03  1.1622e-03  9.6364e-03  4.0913e-01  2.3067e-03  3.3123e-03  1.3744e-03  0:00:02   11
  1990  2.3112e-03  1.1681e-03  9.6508e-03  3.9711e-01  2.3054e-03  3.2967e-03  1.3770e-03  0:00:01   10
  1991  2.3278e-03  1.1744e-03  9.6661e-03  3.8334e-01  2.3219e-03  3.2814e-03  1.3787e-03  0:00:01    9

  iter  continuity  x-velocity  y-velocity  z-velocity      energy           k       omega     time/iter
  1992  2.3543e-03  1.1806e-03  9.6824e-03  3.6758e-01  2.3484e-03  3.2660e-03  1.3804e-03  0:00:02    8
  1993  2.3816e-03  1.1865e-03  9.7001e-03  3.5093e-01  2.3756e-03  3.2553e-03  1.3765e-03  0:00:02    7
  1994  2.4185e-03  1.1928e-03  9.7192e-03  3.3331e-01  2.4126e-03  3.2453e-03  1.3783e-03  0:00:01    6
  1995  2.4489e-03  1.1992e-03  9.7389e-03  3.1519e-01  2.4429e-03  3.2343e-03  1.3786e-03  0:00:01    5
  1996  2.4805e-03  1.2057e-03  9.7591e-03  2.9707e-01  2.4745e-03  3.2231e-03  1.3794e-03  0:00:01    4
  1997  2.5107e-03  1.2125e-03  9.7810e-03  2.7900e-01  2.5047e-03  3.2072e-03  1.3841e-03  0:00:01    3
  1998  2.5504e-03  1.2200e-03  9.8041e-03  2.6077e-01  2.5444e-03  3.1904e-03  1.3844e-03  0:00:00    2
  1999  2.5706e-03  1.2274e-03  9.8279e-03  2.4272e-01  2.5646e-03  3.1777e-03  1.3803e-03  0:00:00    1
  2000  2.5992e-03  1.2343e-03  9.8518e-03  2.2726e-01  2.5932e-03  3.1655e-03  1.3734e-03  0:00:00    0

> 
adjoint/                parallel/               server/
define/                 parametric-study/       solve/
display/                plot/                   surface/
exit                    preferences/            turbo-workflow/
file/                   print-license-usage     views/
mesh/                   report/

> /file/write-case-data project1
Fast-loading "C:\PROGRA~1\ANSYSI~1\v231\fluent\fluent23.1.0\\addons\afd\lib\hdfio.bin"
Done.

Writing to Engs-30669:"C:\Users\kebl7595\Desktop\CFD\Runs\Flap\12 degrees\project1.cas.h5" in NODE0 mode and compression level 1 ...
       24072 cells,     1 zone  ...
       80918 faces,     7 zones ...
       33000 nodes,     1 zone  ...
  Done.
Done.

Writing to Engs-30669:"C:\Users\kebl7595\Desktop\CFD\Runs\Flap\12 degrees\project1.dat.h5" in NODE0 mode and compression level 1 ...
  Writing results.
Done.

> /file/export/ascii "./surface.dat" wing () no pressure mach-number quit no

Writing "./surface.dat"...

Writing information to ascii file ...
Done.


> /report/forces/wall-forces y -0.20791 -0.97815 0 y "Lift"

> /report/forces/wall-forces y 0.97815 -0.20791 0 y "Drag"

> ;/exit

> /exit y

Posting ANSYS Product Improvement Program performance data 
Done.
Auto-Transcript Stop Time:  10:24:29, 22 May 2024 GMT Daylight Time 
Total Transcript Time: 15 Minute 30 Second.
