Auto-Transcript Start Time:  13:55:21, 20 May 2024 GMT Daylight Time 
Current Directory: "C:\Users\kebl7595\Desktop\CFD\Runs\Actual Data\0 degree fine mesh"

              Welcome to ANSYS Fluent 2023 R1

              Copyright 1987-2023 ANSYS, Inc. All Rights Reserved.
              Unauthorized use, distribution or duplication is prohibited.
              This product is subject to U.S. laws governing export and re-export.
              For full Legal Notice, see documentation.

Build Time: Nov 28 2022 09:52:02 EST  Build Id: 10208  
 
Connected License Server List:	1055@ansyslic.eng.ox.ac.uk

*********************************************
Info: Your license enables 4-way parallel execution.
For faster simulations, please start the application with the appropriate parallel options.
*********************************************


     --------------------------------------------------------------
     This is an academic version of ANSYS FLUENT. Usage of this product
     license is limited to the terms and conditions specified in your ANSYS
     license form, additional terms section.
     --------------------------------------------------------------
Host spawning Node 0 on machine "Engs-30669" (win64).

------------------------------------------------------------------------------------
ID    Hostname    Core  O.S.         PID    Vendor                                 
------------------------------------------------------------------------------------
n0    Engs-30669  1/32  Windows-x64  22364  13th Gen Intel(R) Core(TM) i9-13900    
host  Engs-30669        Windows-x64  38696  13th Gen Intel(R) Core(TM) i9-13900    

MPI Option Selected: intel
------------------------------------------------------------------------------------

Cleanup script file is C:\\Users\\kebl7595\\Desktop\\CFD\\Runs\\Actual Data\\0 degree fine mesh\\cleanup-fluent-Engs-30669-38696.bat
QA Service Message :
QA Services Agreement Enabled. This application is included in the scope of an ANSYS QA Services Agreement.
Posting ANSYS Product Improvement Program startup data
Done.

Reading journal file C:/Users/kebl7595/Desktop/CFD/Runs/Actual Data/0 degree fine mesh/project1.jou...

> /file/set-batch-options no no no 

> 
define/                 parametric-study/       solve/
display/                plot/                   surface/
exit                    preferences/            switch-to-meshing-mode
file/                   print-license-usage     turbo-workflow/
mesh/                   report/                 views/
parallel/               server/

> /file/import/cgns/mesh  "./project1.cgns"
Engs-30669 has other FLUENT parallel processes running.                       Process affinity not being set.

Importing "./project1.cgns"

Opening library "C:\\PROGRA~1\\ANSYSI~1\\v231\\fluent\\fluent23.1.0\\vki\\win64\\devtools4.4.6.dll"... done.

Read    47864 nodes
   35100 hexahedral cells, zone  1
   24990 quadrilateral wall faces, zone  2.
   92448 quadrilateral interior faces, zone  3.
     354 quadrilateral interface faces, zone  4.
       6 quadrilateral wall faces, zone  5.

Building...
     mesh
     materials,
     interface,
     domains,
     zones,
	default_exterior-1
	interface-default_subface
	default_interior-1
	default_subface
	default
     parallel,
The automatic selection for flux type has changed to Rhie-Chow: momentum based.

Done.


> 
adjoint/                parallel/               server/
define/                 parametric-study/       solve/
display/                plot/                   surface/
exit                    preferences/            turbo-workflow/
file/                   print-license-usage     views/
mesh/                   report/

> /define/models/solver/density-based-implicit yes

> 
adjoint/                parallel/               server/
define/                 parametric-study/       solve/
display/                plot/                   surface/
exit                    preferences/            turbo-workflow/
file/                   print-license-usage     views/
mesh/                   report/

> /define/models/energy? yes yes invalid command [yes]
yes

> /define/models/viscous/inviscid yes

> 
adjoint/                parallel/               server/
define/                 parametric-study/       solve/
display/                plot/                   surface/
exit                    preferences/            turbo-workflow/
file/                   print-license-usage     views/
mesh/                   report/

> /define/materials/change-create air air air is a fluid
yes 
Density
ideal-gas no data required.

no no no no 

> 
adjoint/                parallel/               server/
define/                 parametric-study/       solve/
display/                plot/                   surface/
exit                    preferences/            turbo-workflow/
file/                   print-license-usage     views/
mesh/                   report/

> /mesh/modify-zones/sep-face-zone-angle 2 90 yes

 11700 faces in contiguous region 0
 588 faces in contiguous region 1
 702 faces in contiguous region 2
 11700 faces in contiguous region 3
 300 faces in contiguous region 4
 Separates zone 2 into 5 zone(s).
Updating new zone information...
   created new zone default_subface:010 from default_subface
   created new zone default_subface:009 from default_subface
   created new zone default_subface:008 from default_subface
   created new zone default_subface:007 from default_subface
done.

> 
adjoint/                parallel/               server/
define/                 parametric-study/       solve/
display/                plot/                   surface/
exit                    preferences/            turbo-workflow/
file/                   print-license-usage     views/
mesh/                   report/

> /define/boundary-conditions/zone-name  5   te

> /define/boundary-conditions/zone-name  7 wing

> /define/boundary-conditions/zone-name  2 sym1

> /define/boundary-conditions/zone-name  9 sym2

> 
adjoint/                parallel/               server/
define/                 parametric-study/       solve/
display/                plot/                   surface/
exit                    preferences/            turbo-workflow/
file/                   print-license-usage     views/
mesh/                   report/

> /define/boundary-conditions/zone-name  8 far1

> /define/boundary-conditions/zone-name 10 far2

> 
adjoint/                parallel/               server/
define/                 parametric-study/       solve/
display/                plot/                   surface/
exit                    preferences/            turbo-workflow/
file/                   print-license-usage     views/
mesh/                   report/

> /define/boundary-conditions/zone-type  8 pressure-far-field

> /define/boundary-conditions/zone-type 10 pressure-far-field

> /define/boundary-conditions/zone-type  2 symmetry

> /define/boundary-conditions/zone-type  9 symmetry

> 
adjoint/                parallel/               server/
define/                 parametric-study/       solve/
display/                plot/                   surface/
exit                    preferences/            turbo-workflow/
file/                   print-license-usage     views/
mesh/                   report/

> /define/boundary-conditions/pressure-far-field (far2 far1)
far1 no 0 no 0.1 no 300 yes no 1 no 0 no 0

> /define/boundary-conditions/pressure-far-field (far2 far1)
far2 no 0 no 0.1 no 300 yes no 1 no 0 no 0

> 
adjoint/                parallel/               server/
define/                 parametric-study/       solve/
display/                plot/                   surface/
exit                    preferences/            turbo-workflow/
file/                   print-license-usage     views/
mesh/                   report/

> /solve/initialize/compute-defaults/pressure-far-field (far2 far1)
far1

> /solve/initialize/initialize-flow

> 
adjoint/                parallel/               server/
define/                 parametric-study/       solve/
display/                plot/                   surface/
exit                    preferences/            turbo-workflow/
file/                   print-license-usage     views/
mesh/                   report/

> /solve/monitors/residual/convergence-criteria 1.e-9 1.e-9 1.e-9 1.e-9 1.e-9

> /solve/iterate 2000

  iter  continuity  x-velocity  y-velocity  z-velocity      energy     time/iter
     1  1.0000e+00  1.0000e+00  1.0000e+00  0.0000e+00  1.0000e+00  0:00:00 1999
     2  5.2186e-01  6.2608e-01  2.9422e-01  1.0000e+00  5.2280e-01  0:00:00 1998
     3  2.7512e-01  2.2263e-01  2.3822e-01  4.2571e-01  2.7556e-01  0:00:00 1997
     4  1.8080e-01  1.6450e-01  1.6268e-01  5.3095e-01  1.8104e-01  0:00:00 1996
     5  1.3605e-01  1.2469e-01  1.1151e-01  7.5821e-01  1.3624e-01  0:33:15 1995
     6  1.1066e-01  8.4665e-02  8.0878e-02  6.5907e-01  1.1085e-01  0:26:35 1994
     7  8.6288e-02  6.4775e-02  6.0686e-02  4.6249e-01  8.6426e-02  0:21:16 1993
     8  6.9962e-02  5.1087e-02  4.6859e-02  4.2460e-01  7.0085e-02  0:17:00 1992
     9  5.8600e-02  4.1467e-02  3.7117e-02  3.4989e-01  5.8715e-02  0:13:36 1991
    10  5.0189e-02  3.4777e-02  3.0044e-02  3.0007e-01  5.0292e-02  0:10:52 1990
    11  4.4017e-02  2.9929e-02  2.4766e-02  2.7667e-01  4.4114e-02  0:15:19 1989

  iter  continuity  x-velocity  y-velocity  z-velocity      energy     time/iter
    12  3.9486e-02  2.6240e-02  2.0748e-02  2.6471e-01  3.9584e-02  0:12:15 1988
    13  3.6171e-02  2.3335e-02  1.7644e-02  2.5820e-01  3.6276e-02  0:09:48 1987
    14  3.3743e-02  2.1003e-02  1.5226e-02  2.5311e-01  3.3858e-02  0:07:50 1986
    15  3.1922e-02  1.9277e-02  1.3296e-02  2.4917e-01  3.2049e-02  0:06:16 1985
    16  3.0526e-02  1.7975e-02  1.1739e-02  2.4587e-01  3.0664e-02  0:05:00 1984
    17  2.9434e-02  1.6962e-02  1.0509e-02  2.4285e-01  2.9585e-02  0:04:00 1983
    18  2.8495e-02  1.6279e-02  9.5090e-03  2.4001e-01  2.8656e-02  0:09:48 1982
    19  2.7648e-02  1.5749e-02  8.7261e-03  2.3717e-01  2.7819e-02  0:07:51 1981
    20  2.6798e-02  1.5409e-02  8.0937e-03  2.3415e-01  2.6973e-02  0:06:16 1980
    21  2.5918e-02  1.5124e-02  7.5990e-03  2.3097e-01  2.6095e-02  0:05:01 1979
    22  2.4980e-02  1.4927e-02  7.1922e-03  2.2771e-01  2.5156e-02  0:04:01 1978

  iter  continuity  x-velocity  y-velocity  z-velocity      energy     time/iter
    23  2.3994e-02  1.4737e-02  6.8643e-03  2.2450e-01  2.4165e-02  0:03:12 1977
    24  2.2973e-02  1.4563e-02  6.5890e-03  2.2147e-01  2.3136e-02  0:02:34 1976
    25  2.1936e-02  1.4432e-02  6.3504e-03  2.1866e-01  2.2091e-02  0:08:38 1975
    26  2.0924e-02  1.4294e-02  6.1392e-03  2.1604e-01  2.1070e-02  0:06:54 1974
    27  1.9926e-02  1.4189e-02  5.9387e-03  2.1354e-01  2.0061e-02  0:05:31 1973
    28  1.8978e-02  1.4098e-02  5.7488e-03  2.1108e-01  1.9103e-02  0:04:25 1972
    29  1.8058e-02  1.4021e-02  5.5631e-03  2.0863e-01  1.8171e-02  0:03:32 1971
    30  1.7204e-02  1.3977e-02  5.3859e-03  2.0632e-01  1.7306e-02  0:02:49 1970
    31  1.6433e-02  1.3962e-02  5.2230e-03  2.0432e-01  1.6524e-02  0:02:15 1969
    32  1.5756e-02  1.3978e-02  5.0808e-03  2.0239e-01  1.5837e-02  0:08:22 1968
    33  1.5196e-02  1.4037e-02  4.9617e-03  2.0032e-01  1.5267e-02  0:06:41 1967

  iter  continuity  x-velocity  y-velocity  z-velocity      energy     time/iter
    34  1.4766e-02  1.4138e-02  4.8649e-03  1.9790e-01  1.4828e-02  0:05:21 1966
    35  1.4460e-02  1.4280e-02  4.7894e-03  1.9582e-01  1.4515e-02  0:04:17 1965
    36  1.4279e-02  1.4471e-02  4.7319e-03  1.9659e-01  1.4327e-02  0:03:25 1964
    37  1.4207e-02  1.4707e-02  4.6923e-03  1.9662e-01  1.4250e-02  0:02:44 1963
    38  1.4242e-02  1.4980e-02  4.6691e-03  1.9624e-01  1.4281e-02  0:02:11 1962
    39  1.4383e-02  1.5282e-02  4.6650e-03  1.9587e-01  1.4419e-02  0:01:45 1961
    40  1.4628e-02  1.5610e-02  4.6794e-03  1.9530e-01  1.4664e-02  0:07:56 1960
    41  1.4983e-02  1.5958e-02  4.7119e-03  1.9494e-01  1.5021e-02  0:06:20 1959
    42  1.5453e-02  1.6318e-02  4.7632e-03  1.9452e-01  1.5496e-02  0:05:04 1958
    43  1.6043e-02  1.6689e-02  4.8349e-03  1.9446e-01  1.6091e-02  0:04:03 1957
    44  1.6756e-02  1.7060e-02  4.9298e-03  1.9458e-01  1.6813e-02  0:03:15 1956

  iter  continuity  x-velocity  y-velocity  z-velocity      energy     time/iter
    45  1.7600e-02  1.7428e-02  5.0502e-03  1.9523e-01  1.7665e-02  0:02:36 1955
    46  1.8568e-02  1.7791e-02  5.1981e-03  1.9652e-01  1.8644e-02  0:02:04 1954
    47  1.9657e-02  1.8149e-02  5.3745e-03  1.9855e-01  1.9745e-02  0:08:10 1953
    48  2.0860e-02  1.8503e-02  5.5831e-03  2.0146e-01  2.0959e-02  0:06:32 1952
    49  2.2163e-02  1.8855e-02  5.8270e-03  2.0524e-01  2.2274e-02  0:05:13 1951
    50  2.3548e-02  1.9207e-02  6.1091e-03  2.0980e-01  2.3673e-02  0:04:11 1950
    51  2.4995e-02  1.9565e-02  6.4331e-03  2.1498e-01  2.5134e-02  0:03:20 1949
    52  2.6489e-02  1.9933e-02  6.8013e-03  2.2083e-01  2.6642e-02  0:02:40 1948
    53  2.8011e-02  2.0315e-02  7.2154e-03  2.2694e-01  2.8179e-02  0:02:08 1947
    54  2.9546e-02  2.0717e-02  7.6776e-03  2.3322e-01  2.9730e-02  0:08:12 1946
    55  3.1079e-02  2.1142e-02  8.1858e-03  2.3951e-01  3.1279e-02  0:06:33 1945

  iter  continuity  x-velocity  y-velocity  z-velocity      energy     time/iter
    56  3.2594e-02  2.1590e-02  8.7398e-03  2.4561e-01  3.2811e-02  0:05:14 1944
    57  3.4079e-02  2.2063e-02  9.3357e-03  2.5133e-01  3.4314e-02  0:04:11 1943
    58  3.5520e-02  2.2558e-02  9.9696e-03  2.5549e-01  3.5773e-02  0:03:21 1942
    59  3.6906e-02  2.3072e-02  1.0636e-02  2.5856e-01  3.7177e-02  0:02:41 1941
    60  3.8225e-02  2.3599e-02  1.1328e-02  2.6311e-01  3.8514e-02  0:02:08 1940
    61  3.9466e-02  2.4130e-02  1.2039e-02  2.6918e-01  3.9773e-02  0:08:11 1939
    62  4.0618e-02  2.4657e-02  1.2759e-02  2.7222e-01  4.0943e-02  0:06:32 1938
    63  4.1674e-02  2.5170e-02  1.3481e-02  2.7457e-01  4.2015e-02  0:05:14 1937
    64  4.2622e-02  2.5659e-02  1.4196e-02  2.7661e-01  4.2977e-02  0:04:11 1936
    65  4.3459e-02  2.6109e-02  1.4895e-02  2.7777e-01  4.3827e-02  0:03:21 1935
    66  4.4172e-02  2.6512e-02  1.5568e-02  2.7834e-01  4.4553e-02  0:02:40 1934

  iter  continuity  x-velocity  y-velocity  z-velocity      energy     time/iter
    67  4.4764e-02  2.6855e-02  1.6209e-02  2.7839e-01  4.5154e-02  0:02:08 1933
    68  4.5225e-02  2.7130e-02  1.6805e-02  2.7794e-01  4.5623e-02  0:08:09 1932
    69  4.5559e-02  2.7325e-02  1.7352e-02  2.7703e-01  4.5964e-02  0:06:31 1931
    70  4.5763e-02  2.7433e-02  1.7841e-02  2.7565e-01  4.6173e-02  0:05:13 1930
    71  4.5838e-02  2.7445e-02  1.8266e-02  2.7388e-01  4.6251e-02  0:04:10 1929
    72  4.5788e-02  2.7361e-02  1.8617e-02  2.7176e-01  4.6203e-02  0:03:20 1928
    73  4.5610e-02  2.7170e-02  1.8896e-02  2.6932e-01  4.6025e-02  0:02:40 1927
    74  4.5306e-02  2.6872e-02  1.9094e-02  2.6658e-01  4.5719e-02  0:02:08 1926
    75  4.4874e-02  2.6473e-02  1.9208e-02  2.6353e-01  4.5284e-02  0:08:07 1925
    76  4.4314e-02  2.5967e-02  1.9241e-02  2.6022e-01  4.4720e-02  0:06:30 1924
    77  4.3633e-02  2.5352e-02  1.9199e-02  2.5669e-01  4.4033e-02  0:05:11 1923

  iter  continuity  x-velocity  y-velocity  z-velocity      energy     time/iter
    78  4.2841e-02  2.4629e-02  1.9087e-02  2.5295e-01  4.3234e-02  0:04:09 1922
    79  4.1964e-02  2.3792e-02  1.8913e-02  2.4913e-01  4.2350e-02  0:03:19 1921
    80  4.1028e-02  2.2853e-02  1.8684e-02  2.4534e-01  4.1407e-02  0:02:39 1920
    81  4.0059e-02  2.1814e-02  1.8416e-02  2.4170e-01  4.0431e-02  0:02:07 1919
    82  3.9085e-02  2.0692e-02  1.8123e-02  2.3835e-01  3.9452e-02  0:08:05 1918
    83  3.8116e-02  1.9503e-02  1.7820e-02  2.3540e-01  3.8480e-02  0:06:28 1917
    84  3.7153e-02  1.8269e-02  1.7514e-02  2.3274e-01  3.7513e-02  0:05:10 1916
    85  3.6180e-02  1.7011e-02  1.7209e-02  2.3036e-01  3.6538e-02  0:04:08 1915
    86  3.5167e-02  1.5759e-02  1.6901e-02  2.2802e-01  3.5524e-02  0:03:18 1914
    87  3.4079e-02  1.4557e-02  1.6583e-02  2.2568e-01  3.4432e-02  0:02:39 1913
    88  3.2877e-02  1.3471e-02  1.6246e-02  2.2326e-01  3.3226e-02  0:02:07 1912

  iter  continuity  x-velocity  y-velocity  z-velocity      energy     time/iter
    89  3.1528e-02  1.2593e-02  1.5884e-02  2.2071e-01  3.1870e-02  0:08:04 1911
    90  3.0012e-02  1.2045e-02  1.5494e-02  2.1812e-01  3.0346e-02  0:06:27 1910
    91  2.8324e-02  1.1940e-02  1.5082e-02  2.1562e-01  2.8647e-02  0:05:09 1909
    92  2.6480e-02  1.2354e-02  1.4663e-02  2.1336e-01  2.6790e-02  0:04:07 1908
    93  2.4501e-02  1.3293e-02  1.4261e-02  2.1166e-01  2.4797e-02  0:03:18 1907
    94  2.2413e-02  1.4700e-02  1.3904e-02  2.1057e-01  2.2693e-02  0:02:38 1906
    95  2.0263e-02  1.6479e-02  1.3625e-02  2.1033e-01  2.0526e-02  0:02:06 1905
    96  1.8094e-02  1.8549e-02  1.3455e-02  2.1100e-01  1.8339e-02  0:08:02 1904
    97  1.5966e-02  2.0828e-02  1.3413e-02  2.1247e-01  1.6190e-02  0:06:25 1903
    98  1.3963e-02  2.3252e-02  1.3512e-02  2.1453e-01  1.4161e-02  0:05:08 1902
    99  1.2219e-02  2.5787e-02  1.3748e-02  2.1717e-01  1.2381e-02  0:04:06 1901

  iter  continuity  x-velocity  y-velocity  z-velocity      energy     time/iter
   100  1.0945e-02  2.8372e-02  1.4112e-02  2.2047e-01  1.1057e-02  0:03:17 1900
   101  1.0412e-02  3.0986e-02  1.4582e-02  2.2443e-01  1.0460e-02  0:02:37 1899
   102  1.0841e-02  3.3596e-02  1.5130e-02  2.2851e-01  1.0820e-02  0:02:06 1898
   103  1.2248e-02  3.6165e-02  1.5731e-02  2.3149e-01  1.2170e-02  0:08:00 1897
   104  1.4479e-02  3.8681e-02  1.6349e-02  2.3382e-01  1.4363e-02  0:06:24 1896
   105  1.7377e-02  4.1105e-02  1.6964e-02  2.3509e-01  1.7239e-02  0:05:07 1895
   106  2.0884e-02  4.3445e-02  1.7536e-02  2.3607e-01  2.0733e-02  0:04:05 1894
   107  2.5062e-02  4.5649e-02  1.8061e-02  2.3630e-01  2.4907e-02  0:03:16 1893
   108  2.9811e-02  4.7711e-02  1.8510e-02  2.3586e-01  2.9653e-02  0:02:37 1892
   109  3.4466e-02  4.9585e-02  1.8880e-02  2.3479e-01  3.4306e-02  0:02:05 1891
   110  3.8392e-02  5.1235e-02  1.9161e-02  2.3317e-01  3.8229e-02  0:01:40 1890

  iter  continuity  x-velocity  y-velocity  z-velocity      energy     time/iter
   111  4.1931e-02  5.2685e-02  1.9345e-02  2.3104e-01  4.1765e-02  0:07:38 1889
   112  4.5348e-02  5.3929e-02  1.9438e-02  2.2841e-01  4.5181e-02  0:06:06 1888
   113  4.8657e-02  5.4936e-02  1.9437e-02  2.2527e-01  4.8490e-02  0:04:53 1887
   114  5.1874e-02  5.5719e-02  1.9334e-02  2.2168e-01  5.1709e-02  0:03:54 1886
   115  5.4966e-02  5.6283e-02  1.9148e-02  2.1779e-01  5.4804e-02  0:03:07 1885
   116  5.7845e-02  5.6575e-02  1.8884e-02  2.1371e-01  5.7686e-02  0:02:30 1884
   117  6.0477e-02  5.6635e-02  1.8554e-02  2.0954e-01  6.0323e-02  0:02:00 1883
   118  6.2835e-02  5.6554e-02  1.8154e-02  2.0550e-01  6.2687e-02  0:07:52 1882
   119  6.4937e-02  5.6220e-02  1.7735e-02  2.0177e-01  6.4796e-02  0:06:17 1881
   120  6.6792e-02  5.5713e-02  1.7274e-02  1.9840e-01  6.6660e-02  0:05:02 1880
   121  6.8408e-02  5.5073e-02  1.6808e-02  1.9540e-01  6.8285e-02  0:04:01 1879

  iter  continuity  x-velocity  y-velocity  z-velocity      energy     time/iter
   122  6.9760e-02  5.4294e-02  1.6333e-02  1.9279e-01  6.9647e-02  0:03:13 1878
   123  7.0820e-02  5.3365e-02  1.5873e-02  1.9046e-01  7.0718e-02  0:02:34 1877
   124  7.1582e-02  5.2290e-02  1.5462e-02  1.8838e-01  7.1492e-02  0:02:03 1876
   125  7.2059e-02  5.1169e-02  1.5039e-02  1.8653e-01  7.1981e-02  0:07:54 1875
   126  7.2268e-02  4.9863e-02  1.4690e-02  1.8484e-01  7.2201e-02  0:06:19 1874
   127  7.2205e-02  4.8521e-02  1.4352e-02  1.8323e-01  7.2150e-02  0:05:03 1873
   128  7.1864e-02  4.7047e-02  1.4048e-02  1.8106e-01  7.1821e-02  0:04:02 1872
   129  7.1244e-02  4.5478e-02  1.3791e-02  1.7704e-01  7.1211e-02  0:03:14 1871
   130  7.0347e-02  4.3871e-02  1.3522e-02  1.7453e-01  7.0325e-02  0:02:35 1870
   131  6.9192e-02  4.2122e-02  1.3307e-02  1.7254e-01  6.9180e-02  0:02:04 1869
   132  6.7805e-02  4.0419e-02  1.3073e-02  1.7080e-01  6.7802e-02  0:07:53 1868

  iter  continuity  x-velocity  y-velocity  z-velocity      energy     time/iter
   133  6.6208e-02  3.8557e-02  1.2876e-02  1.6963e-01  6.6212e-02  0:06:18 1867
   134  6.4419e-02  3.6761e-02  1.2636e-02  1.6954e-01  6.4430e-02  0:05:02 1866
   135  6.2453e-02  3.4943e-02  1.2429e-02  1.6920e-01  6.2471e-02  0:04:02 1865
   136  6.0316e-02  3.3045e-02  1.2205e-02  1.6794e-01  6.0339e-02  0:03:13 1864
   137  5.8028e-02  3.1329e-02  1.1946e-02  1.6621e-01  5.8055e-02  0:02:34 1863
   138  5.5608e-02  2.9500e-02  1.1687e-02  1.6432e-01  5.5638e-02  0:02:03 1862
   139  5.3080e-02  2.7787e-02  1.1441e-02  1.6230e-01  5.3113e-02  0:07:51 1861
   140  5.0473e-02  2.6235e-02  1.1144e-02  1.6035e-01  5.0508e-02  0:06:17 1860
   141  4.7792e-02  2.4680e-02  1.0848e-02  1.5791e-01  4.7827e-02  0:05:01 1859
   142  4.5059e-02  2.3387e-02  1.0559e-02  1.5508e-01  4.5095e-02  0:04:01 1858
   143  4.2281e-02  2.2148e-02  1.0242e-02  1.5197e-01  4.2318e-02  0:03:12 1857

  iter  continuity  x-velocity  y-velocity  z-velocity      energy     time/iter
   144  3.9452e-02  2.0744e-02  9.9906e-03  1.4847e-01  3.9488e-02  0:02:34 1856
   145  3.6618e-02  2.0291e-02  9.5908e-03  1.4480e-01  3.6653e-02  0:02:03 1855
   146  3.3773e-02  1.9233e-02  9.2836e-03  1.4090e-01  3.3807e-02  0:07:49 1854
   147  3.0934e-02  1.8295e-02  9.0741e-03  1.3660e-01  3.0966e-02  0:06:15 1853
   148  2.8129e-02  1.8181e-02  8.7438e-03  1.3230e-01  2.8159e-02  0:05:00 1852
   149  2.5343e-02  1.7999e-02  8.3736e-03  1.2785e-01  2.5372e-02  0:04:00 1851
   150  2.2572e-02  1.7440e-02  8.1977e-03  1.2312e-01  2.2600e-02  0:03:12 1850
   151  1.9860e-02  1.7319e-02  7.9868e-03  1.1834e-01  1.9886e-02  0:02:33 1849
   152  1.7200e-02  1.7530e-02  7.6822e-03  1.1360e-01  1.7226e-02  0:02:03 1848
   153  1.4611e-02  1.7271e-02  7.5422e-03  1.0872e-01  1.4636e-02  0:07:47 1847
   154  1.1994e-02  1.7634e-02  7.3811e-03  1.0406e-01  1.2020e-02  0:06:14 1846

  iter  continuity  x-velocity  y-velocity  z-velocity      energy     time/iter
   155  9.4590e-03  1.7824e-02  7.1794e-03  9.9714e-02  9.4879e-03  0:04:59 1845
   156  7.5193e-03  1.7710e-02  7.0453e-03  9.5557e-02  7.5522e-03  0:03:59 1844
   157  6.9241e-03  1.7619e-02  6.9817e-03  9.1647e-02  6.9602e-03  0:03:11 1843
   158  7.8411e-03  1.8080e-02  6.9180e-03  8.8368e-02  7.8798e-03  0:02:33 1842
   159  9.6120e-03  1.8652e-02  6.7728e-03  8.5735e-02  9.6521e-03  0:02:02 1841
   160  1.1489e-02  1.8252e-02  6.7441e-03  8.3282e-02  1.1527e-02  0:07:46 1840
   161  1.3237e-02  1.8328e-02  6.7319e-03  8.1531e-02  1.3275e-02  0:06:12 1839
   162  1.4867e-02  1.8209e-02  6.7251e-03  8.0347e-02  1.4905e-02  0:04:58 1838
   163  1.6418e-02  1.8657e-02  6.7314e-03  7.9810e-02  1.6457e-02  0:03:58 1837
   164  1.7841e-02  1.8613e-02  6.7211e-03  7.9578e-02  1.7881e-02  0:03:10 1836
   165  1.9193e-02  1.8600e-02  6.6905e-03  8.0000e-02  1.9233e-02  0:02:32 1835

  iter  continuity  x-velocity  y-velocity  z-velocity      energy     time/iter
   166  2.0476e-02  1.8563e-02  6.7040e-03  8.0849e-02  2.0515e-02  0:02:02 1834
   167  2.1667e-02  1.8354e-02  6.7841e-03  8.1904e-02  2.1707e-02  0:07:44 1833
   168  2.2752e-02  1.8085e-02  6.8597e-03  8.3015e-02  2.2791e-02  0:06:11 1832
   169  2.3714e-02  1.8240e-02  6.9044e-03  8.4271e-02  2.3754e-02  0:04:57 1831
   170  2.4519e-02  1.8543e-02  6.9065e-03  8.5761e-02  2.4558e-02  0:03:57 1830
   171  2.5132e-02  1.8390e-02  6.9454e-03  8.7109e-02  2.5171e-02  0:03:10 1829
   172  2.5560e-02  1.8045e-02  7.0200e-03  8.8215e-02  2.5598e-02  0:02:32 1828
   173  2.5773e-02  1.7296e-02  7.1618e-03  8.8856e-02  2.5809e-02  0:02:01 1827
   174  2.5817e-02  1.7434e-02  7.1876e-03  8.9522e-02  2.5852e-02  0:07:42 1826
   175  2.5678e-02  1.7842e-02  7.1155e-03  9.0230e-02  2.5712e-02  0:06:09 1825
   176  2.5344e-02  1.7842e-02  7.0727e-03  9.0655e-02  2.5377e-02  0:04:55 1824

  iter  continuity  x-velocity  y-velocity  z-velocity      energy     time/iter
   177  2.4831e-02  1.7470e-02  6.9912e-03  8.9453e-02  2.4862e-02  0:03:56 1823
   178  2.4135e-02  1.6313e-02  7.0305e-03  8.9117e-02  2.4163e-02  0:03:09 1822
   179  2.3331e-02  1.6190e-02  6.9368e-03  8.9576e-02  2.3356e-02  0:02:31 1821
   180  2.2464e-02  1.6509e-02  6.7170e-03  8.9703e-02  2.2488e-02  0:02:01 1820
   181  2.1581e-02  1.6745e-02  6.5117e-03  8.9539e-02  2.1604e-02  0:07:40 1819
   182  2.0758e-02  1.6473e-02  6.3152e-03  8.9224e-02  2.0779e-02  0:06:08 1818
   183  2.0047e-02  1.5716e-02  6.1915e-03  8.8764e-02  2.0067e-02  0:04:54 1817
   184  1.9474e-02  1.4686e-02  6.2919e-03  8.8157e-02  1.9491e-02  0:03:55 1816
   185  1.9078e-02  1.4784e-02  6.1458e-03  8.7480e-02  1.9093e-02  0:03:08 1815
   186  1.8784e-02  1.5018e-02  5.9954e-03  8.6850e-02  1.8800e-02  0:02:30 1814
   187  1.8536e-02  1.5299e-02  5.9163e-03  8.6309e-02  1.8553e-02  0:02:00 1813

  iter  continuity  x-velocity  y-velocity  z-velocity      energy     time/iter
   188  1.8273e-02  1.5101e-02  5.8938e-03  8.5573e-02  1.8290e-02  0:07:39 1812
   189  1.7934e-02  1.4315e-02  5.8811e-03  8.4488e-02  1.7950e-02  0:06:07 1811
   190  1.7510e-02  1.3452e-02  6.0151e-03  8.3071e-02  1.7523e-02  0:04:53 1810
   191  1.7017e-02  1.3407e-02  5.9668e-03  8.1667e-02  1.7029e-02  0:03:54 1809
   192  1.6435e-02  1.3546e-02  5.8498e-03  8.0397e-02  1.6447e-02  0:03:07 1808
   193  1.5800e-02  1.3996e-02  5.8116e-03  7.9241e-02  1.5813e-02  0:02:30 1807
   194  1.5112e-02  1.4274e-02  5.7821e-03  7.8029e-02  1.5127e-02  0:02:00 1806
   195  1.4393e-02  1.4176e-02  5.7307e-03  7.6730e-02  1.4408e-02  0:07:37 1805
   196  1.3649e-02  1.3147e-02  5.8284e-03  7.5019e-02  1.3661e-02  0:06:05 1804
   197  1.2972e-02  1.3007e-02  5.8223e-03  7.3421e-02  1.2982e-02  0:04:52 1803
   198  1.2322e-02  1.3068e-02  5.7400e-03  7.1994e-02  1.2331e-02  0:03:53 1802

  iter  continuity  x-velocity  y-velocity  z-velocity      energy     time/iter
   199  1.1694e-02  1.3262e-02  5.6895e-03  7.0773e-02  1.1704e-02  0:03:07 1801
   200  1.1112e-02  1.3742e-02  5.6883e-03  6.9690e-02  1.1125e-02  0:02:29 1800
   201  1.0557e-02  1.4105e-02  5.6851e-03  6.8576e-02  1.0574e-02  0:01:59 1799
   202  9.9865e-03  1.3926e-02  5.6306e-03  6.7260e-02  1.0003e-02  0:07:35 1798
   203  9.4356e-03  1.3367e-02  5.7142e-03  6.5779e-02  9.4487e-03  0:06:04 1797
   204  8.9517e-03  1.3202e-02  5.6886e-03  6.4508e-02  8.9621e-03  0:04:51 1796
   205  8.4903e-03  1.3136e-02  5.5808e-03  6.3396e-02  8.4998e-03  0:03:53 1795
   206  8.0414e-03  1.3074e-02  5.4881e-03  6.2367e-02  8.0514e-03  0:03:06 1794
   207  7.6371e-03  1.3358e-02  5.4433e-03  6.1496e-02  7.6502e-03  0:02:29 1793
   208  7.3063e-03  1.3729e-02  5.4097e-03  6.0614e-02  7.3235e-03  0:01:59 1792
   209  6.9721e-03  1.3713e-02  5.2646e-03  5.9606e-02  6.9909e-03  0:07:33 1791

  iter  continuity  x-velocity  y-velocity  z-velocity      energy     time/iter
   210  6.6253e-03  1.3134e-02  5.2485e-03  5.8315e-02  6.6407e-03  0:06:02 1790
   211  6.3868e-03  1.2930e-02  5.1653e-03  5.7167e-02  6.3995e-03  0:04:50 1789
   212  6.1944e-03  1.2690e-02  5.0340e-03  5.6175e-02  6.2046e-03  0:03:52 1788
   213  6.0423e-03  1.2543e-02  4.8802e-03  5.5385e-02  6.0518e-03  0:03:05 1787
   214  5.9451e-03  1.2510e-02  4.7539e-03  5.5010e-02  5.9557e-03  0:02:28 1786
   215  5.9300e-03  1.2642e-02  4.6903e-03  5.4831e-02  5.9432e-03  0:01:58 1785
   216  6.0079e-03  1.2907e-02  4.6592e-03  5.4737e-02  6.0241e-03  0:07:31 1784
   217  6.0830e-03  1.2635e-02  4.5539e-03  5.4472e-02  6.0987e-03  0:06:01 1783
   218  6.2280e-03  1.2308e-02  4.5702e-03  5.4092e-02  6.2405e-03  0:04:49 1782
   219  6.4733e-03  1.2281e-02  4.5016e-03  5.3869e-02  6.4841e-03  0:03:51 1781
   220  6.7689e-03  1.2161e-02  4.4127e-03  5.3736e-02  6.7779e-03  0:03:05 1780

  iter  continuity  x-velocity  y-velocity  z-velocity      energy     time/iter
   221  7.1389e-03  1.2206e-02  4.3915e-03  5.3675e-02  7.1472e-03  0:02:28 1779
   222  7.5757e-03  1.2185e-02  4.3786e-03  5.3677e-02  7.5837e-03  0:01:58 1778
   223  8.0694e-03  1.2239e-02  4.4345e-03  5.3788e-02  8.0777e-03  0:07:30 1777
   224  8.6284e-03  1.2477e-02  4.5207e-03  5.3956e-02  8.6375e-03  0:06:00 1776
   225  9.2179e-03  1.2606e-02  4.5943e-03  5.4115e-02  9.2272e-03  0:04:47 1775
   226  9.8095e-03  1.2302e-02  4.7544e-03  5.4096e-02  9.8166e-03  0:03:50 1774
   227  1.0444e-02  1.2344e-02  4.7886e-03  5.4198e-02  1.0450e-02  0:03:04 1773
   228  1.1089e-02  1.2477e-02  4.8385e-03  5.4395e-02  1.1094e-02  0:02:27 1772
   229  1.1739e-02  1.2574e-02  4.9466e-03  5.4637e-02  1.1744e-02  0:01:57 1771
   230  1.2387e-02  1.2571e-02  5.0844e-03  5.4850e-02  1.2391e-02  0:07:28 1770
   231  1.3013e-02  1.2527e-02  5.1996e-03  5.5069e-02  1.3016e-02  0:05:58 1769

  iter  continuity  x-velocity  y-velocity  z-velocity      energy     time/iter
   232  1.3619e-02  1.2602e-02  5.3157e-03  5.5324e-02  1.3621e-02  0:04:46 1768
   233  1.4206e-02  1.2766e-02  5.4607e-03  5.5581e-02  1.4208e-02  0:03:49 1767
   234  1.4751e-02  1.2786e-02  5.5823e-03  5.5769e-02  1.4752e-02  0:03:03 1766
   235  1.5236e-02  1.2462e-02  5.7230e-03  5.5684e-02  1.5236e-02  0:02:26 1765
   236  1.5689e-02  1.2530e-02  5.8205e-03  5.5606e-02  1.5688e-02  0:01:57 1764
   237  1.6088e-02  1.2587e-02  5.9027e-03  5.5511e-02  1.6087e-02  0:07:26 1763
   238  1.6419e-02  1.2398e-02  5.9568e-03  5.5358e-02  1.6417e-02  0:05:57 1762
   239  1.6692e-02  1.2311e-02  5.9920e-03  5.5218e-02  1.6689e-02  0:04:45 1761
   240  1.6905e-02  1.2103e-02  6.0594e-03  5.5024e-02  1.6902e-02  0:03:48 1760
   241  1.7057e-02  1.1880e-02  6.0875e-03  5.4800e-02  1.7053e-02  0:03:02 1759
   242  1.7149e-02  1.1777e-02  6.1031e-03  5.4750e-02  1.7144e-02  0:02:26 1758

  iter  continuity  x-velocity  y-velocity  z-velocity      energy     time/iter
   243  1.7192e-02  1.1971e-02  6.1077e-03  5.4845e-02  1.7187e-02  0:07:48 1757
   244  1.7158e-02  1.1628e-02  6.0578e-03  5.4818e-02  1.7153e-02  0:06:14 1756
   245  1.7061e-02  1.1136e-02  6.0238e-03  5.4652e-02  1.7055e-02  0:04:59 1755
   246  1.6910e-02  1.0906e-02  5.9423e-03  5.4595e-02  1.6902e-02  0:03:59 1754
   247  1.6697e-02  1.0664e-02  5.8536e-03  5.4537e-02  1.6689e-02  0:03:11 1753
   248  1.6424e-02  1.0465e-02  5.7582e-03  5.4494e-02  1.6415e-02  0:02:33 1752
   249  1.6081e-02  1.0138e-02  5.6318e-03  5.4405e-02  1.6073e-02  0:02:02 1751
   250  1.5671e-02  9.7881e-03  5.4684e-03  5.4389e-02  1.5662e-02  0:07:28 1750
   251  1.5201e-02  9.4125e-03  5.3201e-03  5.4405e-02  1.5191e-02  0:05:58 1749
   252  1.4670e-02  9.1395e-03  5.1281e-03  5.4155e-02  1.4660e-02  0:04:46 1748
   253  1.4084e-02  9.2759e-03  4.9610e-03  5.3975e-02  1.4075e-02  0:03:49 1747

  iter  continuity  x-velocity  y-velocity  z-velocity      energy     time/iter
   254  1.3446e-02  9.4832e-03  4.8033e-03  5.3997e-02  1.3438e-02  0:03:03 1746
   255  1.2726e-02  8.8479e-03  4.5921e-03  5.3071e-02  1.2717e-02  0:02:26 1745
   256  1.1961e-02  8.4438e-03  4.4096e-03  5.3061e-02  1.1951e-02  0:01:57 1744
   257  1.1160e-02  8.3774e-03  4.2226e-03  5.2886e-02  1.1151e-02  0:07:22 1743
   258  1.0319e-02  8.4243e-03  4.0523e-03  5.2661e-02  1.0309e-02  0:05:53 1742
   259  9.4406e-03  8.5077e-03  3.8816e-03  5.2531e-02  9.4316e-03  0:04:43 1741
   260  8.5433e-03  8.7731e-03  3.7651e-03  5.2394e-02  8.5349e-03  0:03:46 1740
   261  7.6336e-03  8.9960e-03  3.6847e-03  5.2238e-02  7.6255e-03  0:03:01 1739
   262  6.7220e-03  9.2003e-03  3.6192e-03  5.2071e-02  6.7131e-03  0:02:24 1738
   263  5.8744e-03  9.5797e-03  3.5994e-03  5.2147e-02  5.8648e-03  0:01:56 1737
   264  5.1446e-03  9.9915e-03  3.6317e-03  5.2159e-02  5.1336e-03  0:07:20 1736

  iter  continuity  x-velocity  y-velocity  z-velocity      energy     time/iter
   265  4.6336e-03  1.0650e-02  3.7406e-03  5.2264e-02  4.6234e-03  0:05:51 1735
   266  4.4577e-03  1.1258e-02  3.8189e-03  5.2294e-02  4.4475e-03  0:04:41 1734
   267  4.6698e-03  1.1450e-02  3.9465e-03  5.2162e-02  4.6560e-03  0:03:45 1733
   268  5.3385e-03  1.1841e-02  4.0833e-03  5.2023e-02  5.3231e-03  0:03:00 1732
   269  6.3779e-03  1.2390e-02  4.2078e-03  5.1908e-02  6.3616e-03  0:02:24 1731
   270  7.6981e-03  1.2937e-02  4.3466e-03  5.1856e-02  7.6810e-03  0:01:55 1730
   271  9.2605e-03  1.3560e-02  4.4883e-03  5.1885e-02  9.2434e-03  0:07:18 1729
   272  1.1049e-02  1.4089e-02  4.6496e-03  5.1953e-02  1.1032e-02  0:05:50 1728
   273  1.3063e-02  1.4698e-02  4.7745e-03  5.2015e-02  1.3045e-02  0:04:40 1727
   274  1.5193e-02  1.5260e-02  4.8922e-03  5.2065e-02  1.5174e-02  0:03:44 1726
   275  1.7190e-02  1.5715e-02  5.0226e-03  5.2094e-02  1.7170e-02  0:02:59 1725

  iter  continuity  x-velocity  y-velocity  z-velocity      energy     time/iter
   276  1.9132e-02  1.6094e-02  5.1412e-03  5.2073e-02  1.9110e-02  0:02:23 1724
   277  2.0923e-02  1.6498e-02  5.2298e-03  5.2013e-02  2.0900e-02  0:01:54 1723
   278  2.2596e-02  1.7014e-02  5.2867e-03  5.1994e-02  2.2573e-02  0:01:31 1722
   279  2.4215e-02  1.7543e-02  5.3504e-03  5.1887e-02  2.4193e-02  0:06:57 1721
   280  2.5801e-02  1.7829e-02  5.4120e-03  5.1730e-02  2.5778e-02  0:05:34 1720
   281  2.7347e-02  1.8112e-02  5.4895e-03  5.1651e-02  2.7324e-02  0:04:27 1719
   282  2.8821e-02  1.8448e-02  5.5200e-03  5.1444e-02  2.8799e-02  0:03:33 1718
   283  3.0186e-02  1.8736e-02  5.5244e-03  5.1236e-02  3.0164e-02  0:02:51 1717
   284  3.1420e-02  1.8941e-02  5.5333e-03  5.0229e-02  3.1399e-02  0:02:16 1716
   285  3.2546e-02  1.9065e-02  5.5595e-03  4.9228e-02  3.2526e-02  0:01:49 1715
   286  3.3581e-02  1.9174e-02  5.5854e-03  4.8498e-02  3.3562e-02  0:07:10 1714

  iter  continuity  x-velocity  y-velocity  z-velocity      energy     time/iter
   287  3.4537e-02  1.9240e-02  5.6157e-03  4.7914e-02  3.4520e-02  0:05:44 1713
   288  3.5407e-02  1.9297e-02  5.6195e-03  4.7400e-02  3.5391e-02  0:04:35 1712
   289  3.6177e-02  1.9344e-02  5.6120e-03  4.6887e-02  3.6163e-02  0:03:40 1711
   290  3.6840e-02  1.9364e-02  5.6097e-03  4.6342e-02  3.6828e-02  0:02:56 1710
   291  3.7397e-02  1.9305e-02  5.6171e-03  4.5863e-02  3.7387e-02  0:02:20 1709
   292  3.7855e-02  1.9158e-02  5.6320e-03  4.5420e-02  3.7847e-02  0:01:52 1708
   293  3.8219e-02  1.8967e-02  5.6540e-03  4.4901e-02  3.8213e-02  0:07:11 1707
   294  3.8483e-02  1.8761e-02  5.6627e-03  4.4271e-02  3.8480e-02  0:05:45 1706
   295  3.8644e-02  1.8514e-02  5.6502e-03  4.3460e-02  3.8643e-02  0:04:36 1705
   296  3.8698e-02  1.8156e-02  5.6424e-03  4.2481e-02  3.8698e-02  0:03:40 1704
   297  3.8642e-02  1.7776e-02  5.6302e-03  4.1512e-02  3.8644e-02  0:02:56 1703

  iter  continuity  x-velocity  y-velocity  z-velocity      energy     time/iter
   298  3.8484e-02  1.7399e-02  5.6145e-03  4.0607e-02  3.8489e-02  0:02:21 1702
   299  3.8232e-02  1.6981e-02  5.6008e-03  3.9680e-02  3.8238e-02  0:01:53 1701
   300  3.7893e-02  1.6529e-02  5.5837e-03  3.8751e-02  3.7901e-02  0:07:10 1700
   301  3.7471e-02  1.6060e-02  5.5436e-03  3.7824e-02  3.7482e-02  0:05:44 1699
   302  3.6969e-02  1.5545e-02  5.4944e-03  3.6923e-02  3.6981e-02  0:04:35 1698
   303  3.6386e-02  1.4967e-02  5.4427e-03  3.6041e-02  3.6400e-02  0:03:40 1697
   304  3.5730e-02  1.4379e-02  5.3873e-03  3.5143e-02  3.5745e-02  0:02:56 1696
   305  3.5007e-02  1.3778e-02  5.3201e-03  3.4215e-02  3.5023e-02  0:02:21 1695
   306  3.4220e-02  1.3172e-02  5.2422e-03  3.3357e-02  3.4237e-02  0:01:52 1694
   307  3.3372e-02  1.2485e-02  5.1697e-03  3.2493e-02  3.3390e-02  0:07:08 1693
   308  3.2468e-02  1.1836e-02  5.0794e-03  3.1968e-02  3.2487e-02  0:05:43 1692

  iter  continuity  x-velocity  y-velocity  z-velocity      energy     time/iter
   309  3.1510e-02  1.1264e-02  4.9694e-03  3.0997e-02  3.1529e-02  0:04:34 1691
   310  3.0501e-02  1.0702e-02  4.8561e-03  3.0154e-02  3.0521e-02  0:03:39 1690
   311  2.9444e-02  1.0090e-02  4.7421e-03  2.9472e-02  2.9464e-02  0:02:55 1689
   312  2.8344e-02  9.4561e-03  4.6150e-03  2.8800e-02  2.8364e-02  0:02:20 1688
   313  2.7195e-02  8.8090e-03  4.4788e-03  2.8149e-02  2.7216e-02  0:01:52 1687
   314  2.6006e-02  8.1478e-03  4.3453e-03  2.7548e-02  2.6026e-02  0:07:07 1686
   315  2.4778e-02  7.4667e-03  4.2134e-03  2.6960e-02  2.4798e-02  0:05:41 1685
   316  2.3516e-02  6.8830e-03  4.0789e-03  2.6396e-02  2.3536e-02  0:04:33 1684
   317  2.2225e-02  6.4236e-03  3.9256e-03  2.5977e-02  2.2244e-02  0:03:38 1683
   318  2.0907e-02  6.0196e-03  3.7758e-03  2.5716e-02  2.0925e-02  0:02:54 1682
   319  1.9564e-02  5.6373e-03  3.6324e-03  2.5539e-02  1.9581e-02  0:02:19 1681

  iter  continuity  x-velocity  y-velocity  z-velocity      energy     time/iter
   320  1.8201e-02  5.3353e-03  3.4968e-03  2.5479e-02  1.8217e-02  0:01:51 1680
   321  1.6821e-02  5.1587e-03  3.3582e-03  2.5486e-02  1.6836e-02  0:07:05 1679
   322  1.5423e-02  5.1148e-03  3.2253e-03  2.5616e-02  1.5438e-02  0:05:40 1678
   323  1.4014e-02  5.1285e-03  3.0995e-03  2.5874e-02  1.4027e-02  0:04:32 1677
   324  1.2601e-02  5.1455e-03  2.9880e-03  2.6234e-02  1.2613e-02  0:03:37 1676
   325  1.1183e-02  5.2103e-03  2.8989e-03  2.6686e-02  1.1194e-02  0:02:54 1675
   326  9.7799e-03  5.4113e-03  2.8056e-03  2.7286e-02  9.7893e-03  0:02:19 1674
   327  8.3791e-03  5.6547e-03  2.7265e-03  2.7892e-02  8.3872e-03  0:01:51 1673
   328  7.0244e-03  5.9822e-03  2.6648e-03  2.8506e-02  7.0314e-03  0:07:03 1672
   329  5.8163e-03  6.3229e-03  2.6234e-03  2.9118e-02  5.8223e-03  0:05:38 1671
   330  4.9169e-03  6.6464e-03  2.6012e-03  2.9836e-02  4.9220e-03  0:04:30 1670

  iter  continuity  x-velocity  y-velocity  z-velocity      energy     time/iter
   331  4.6261e-03  6.9802e-03  2.5946e-03  3.0717e-02  4.6307e-03  0:03:36 1669
   332  5.1793e-03  7.3045e-03  2.6095e-03  3.1613e-02  5.1840e-03  0:02:53 1668
   333  6.3165e-03  7.6443e-03  2.6410e-03  3.2513e-02  6.3220e-03  0:02:18 1667
   334  7.6502e-03  7.9820e-03  2.6846e-03  3.3517e-02  7.6568e-03  0:01:51 1666
   335  8.9957e-03  8.2838e-03  2.7469e-03  3.4600e-02  9.0034e-03  0:07:01 1665
   336  1.0302e-02  8.5815e-03  2.8279e-03  3.5576e-02  1.0311e-02  0:05:37 1664
   337  1.1544e-02  8.8967e-03  2.9182e-03  3.6541e-02  1.1553e-02  0:04:29 1663
   338  1.2711e-02  9.1737e-03  3.0261e-03  3.7518e-02  1.2721e-02  0:03:35 1662
   339  1.3802e-02  9.4262e-03  3.1475e-03  3.8311e-02  1.3813e-02  0:02:52 1661
   340  1.4811e-02  9.6725e-03  3.2812e-03  3.9161e-02  1.4823e-02  0:02:18 1660
   341  1.5735e-02  9.9073e-03  3.4278e-03  4.0094e-02  1.5748e-02  0:01:50 1659

  iter  continuity  x-velocity  y-velocity  z-velocity      energy     time/iter
   342  1.6573e-02  1.0134e-02  3.5830e-03  4.1001e-02  1.6585e-02  0:07:00 1658
   343  1.7319e-02  1.0350e-02  3.7432e-03  4.1705e-02  1.7331e-02  0:05:35 1657
   344  1.7973e-02  1.0569e-02  3.9056e-03  4.2233e-02  1.7986e-02  0:04:28 1656
   345  1.8537e-02  1.0780e-02  4.0676e-03  4.2494e-02  1.8550e-02  0:03:34 1655
   346  1.9016e-02  1.0966e-02  4.2313e-03  4.2819e-02  1.9028e-02  0:02:51 1654
   347  1.9410e-02  1.1134e-02  4.3903e-03  4.3185e-02  1.9422e-02  0:02:17 1653
   348  1.9729e-02  1.1286e-02  4.5412e-03  4.3553e-02  1.9740e-02  0:07:20 1652
   349  1.9979e-02  1.1447e-02  4.6784e-03  4.3659e-02  1.9990e-02  0:05:52 1651
   350  2.0163e-02  1.1597e-02  4.8029e-03  4.4755e-02  2.0174e-02  0:04:41 1650
   351  2.0297e-02  1.1751e-02  4.9167e-03  4.6144e-02  2.0307e-02  0:03:45 1649
   352  2.0393e-02  1.1889e-02  5.0199e-03  4.7204e-02  2.0403e-02  0:03:00 1648

  iter  continuity  x-velocity  y-velocity  z-velocity      energy     time/iter
   353  2.0469e-02  1.2011e-02  5.1181e-03  4.7752e-02  2.0478e-02  0:02:24 1647
   354  2.0541e-02  1.2115e-02  5.2137e-03  4.7902e-02  2.0550e-02  0:01:55 1646
   355  2.0625e-02  1.2176e-02  5.3082e-03  4.7698e-02  2.0633e-02  0:07:01 1645
   356  2.0727e-02  1.2214e-02  5.4005e-03  4.7232e-02  2.0734e-02  0:05:37 1644
   357  2.0845e-02  1.2242e-02  5.4906e-03  4.6565e-02  2.0852e-02  0:04:29 1643
   358  2.0970e-02  1.2251e-02  5.5789e-03  4.5767e-02  2.0976e-02  0:03:35 1642
   359  2.1088e-02  1.2242e-02  5.6630e-03  4.4818e-02  2.1093e-02  0:02:52 1641
   360  2.1182e-02  1.2221e-02  5.7398e-03  4.3680e-02  2.1187e-02  0:02:17 1640
   361  2.1240e-02  1.2175e-02  5.8111e-03  4.2510e-02  2.1244e-02  0:01:50 1639
   362  2.1250e-02  1.2089e-02  5.8735e-03  4.1128e-02  2.1254e-02  0:06:55 1638
   363  2.1210e-02  1.1990e-02  5.9206e-03  3.9597e-02  2.1212e-02  0:05:32 1637

  iter  continuity  x-velocity  y-velocity  z-velocity      energy     time/iter
   364  2.1118e-02  1.1867e-02  5.9561e-03  3.7888e-02  2.1120e-02  0:04:26 1636
   365  2.0979e-02  1.1721e-02  5.9774e-03  3.6104e-02  2.0980e-02  0:03:32 1635
   366  2.0797e-02  1.1548e-02  5.9866e-03  3.4231e-02  2.0798e-02  0:02:50 1634
   367  2.0582e-02  1.1370e-02  5.9828e-03  3.2870e-02  2.0581e-02  0:02:16 1633
   368  2.0337e-02  1.1156e-02  5.9714e-03  3.0746e-02  2.0336e-02  0:01:49 1632
   369  2.0068e-02  1.0912e-02  5.9481e-03  2.8810e-02  2.0067e-02  0:06:53 1631
   370  1.9779e-02  1.0667e-02  5.9154e-03  2.7137e-02  1.9777e-02  0:05:30 1630
   371  1.9473e-02  1.0417e-02  5.8759e-03  2.5495e-02  1.9470e-02  0:04:24 1629
   372  1.9150e-02  1.0145e-02  5.8302e-03  2.4113e-02  1.9147e-02  0:03:31 1628
   373  1.8810e-02  9.8385e-03  5.7803e-03  2.3118e-02  1.8807e-02  0:02:49 1627
   374  1.8452e-02  9.5085e-03  5.7259e-03  2.2372e-02  1.8448e-02  0:02:15 1626

  iter  continuity  x-velocity  y-velocity  z-velocity      energy     time/iter
   375  1.8076e-02  9.1722e-03  5.6667e-03  2.2076e-02  1.8072e-02  0:01:48 1625
   376  1.7680e-02  8.8392e-03  5.6025e-03  2.2196e-02  1.7676e-02  0:06:51 1624
   377  1.7263e-02  8.5157e-03  5.5306e-03  2.2659e-02  1.7259e-02  0:05:29 1623
   378  1.6823e-02  8.1760e-03  5.4588e-03  2.3489e-02  1.6818e-02  0:04:23 1622
   379  1.6358e-02  7.8229e-03  5.3845e-03  2.4644e-02  1.6354e-02  0:03:30 1621
   380  1.5870e-02  7.4862e-03  5.3062e-03  2.6080e-02  1.5865e-02  0:02:48 1620
   381  1.5357e-02  7.1659e-03  5.2247e-03  2.7753e-02  1.5353e-02  0:02:14 1619
   382  1.4822e-02  6.8634e-03  5.1411e-03  2.9560e-02  1.4817e-02  0:01:47 1618
   383  1.4265e-02  6.6012e-03  5.0544e-03  3.1477e-02  1.4261e-02  0:06:49 1617
   384  1.3689e-02  6.3706e-03  4.9685e-03  3.3442e-02  1.3684e-02  0:05:27 1616
   385  1.3092e-02  6.1690e-03  4.8837e-03  3.5384e-02  1.3088e-02  0:04:22 1615

  iter  continuity  x-velocity  y-velocity  z-velocity      energy     time/iter
   386  1.2476e-02  6.0147e-03  4.7982e-03  3.7292e-02  1.2472e-02  0:03:29 1614
   387  1.1841e-02  5.9129e-03  4.7149e-03  3.9295e-02  1.1837e-02  0:02:47 1613
   388  1.1188e-02  5.8588e-03  4.6342e-03  4.1314e-02  1.1184e-02  0:02:14 1612
   389  1.0520e-02  5.8628e-03  4.5556e-03  4.3364e-02  1.0516e-02  0:01:47 1611
   390  9.8365e-03  5.9255e-03  4.4797e-03  4.5189e-02  9.8337e-03  0:06:47 1610
   391  9.1400e-03  6.0472e-03  4.4075e-03  4.6832e-02  9.1375e-03  0:05:26 1609
   392  8.4318e-03  6.2319e-03  4.3406e-03  4.8318e-02  8.4298e-03  0:04:20 1608
   393  7.7146e-03  6.4387e-03  4.2794e-03  4.9605e-02  7.7130e-03  0:03:28 1607
   394  6.9916e-03  6.6528e-03  4.2232e-03  5.0782e-02  6.9904e-03  0:02:46 1606
   395  6.2693e-03  6.8938e-03  4.1730e-03  5.1803e-02  6.2684e-03  0:02:13 1605
   396  5.5584e-03  7.1681e-03  4.1257e-03  5.2612e-02  5.5577e-03  0:01:46 1604

  iter  continuity  x-velocity  y-velocity  z-velocity      energy     time/iter
   397  4.8734e-03  7.4656e-03  4.0825e-03  5.2823e-02  4.8728e-03  0:06:46 1603
   398  4.2408e-03  7.7853e-03  4.0420e-03  5.2839e-02  4.2401e-03  0:05:24 1602
   399  3.7040e-03  8.1111e-03  4.0072e-03  5.2915e-02  3.7028e-03  0:04:19 1601
   400  3.3280e-03  8.4202e-03  3.9801e-03  5.3154e-02  3.3258e-03  0:03:27 1600
   401  3.1887e-03  8.7252e-03  3.9528e-03  5.2864e-02  3.1850e-03  0:02:46 1599
   402  3.3430e-03  9.0276e-03  3.9313e-03  5.2379e-02  3.3376e-03  0:02:13 1598
   403  3.7774e-03  9.3229e-03  3.9098e-03  5.1887e-02  3.7706e-03  0:01:46 1597
   404  4.4375e-03  9.6145e-03  3.8900e-03  5.1320e-02  4.4296e-03  0:06:44 1596
   405  5.2648e-03  9.9051e-03  3.8696e-03  5.0837e-02  5.2560e-03  0:05:23 1595
   406  6.2277e-03  1.0169e-02  3.8570e-03  5.0190e-02  6.2182e-03  0:04:18 1594
   407  7.2997e-03  1.0421e-02  3.8373e-03  4.9378e-02  7.2894e-03  0:03:26 1593

  iter  continuity  x-velocity  y-velocity  z-velocity      energy     time/iter
   408  8.4877e-03  1.0639e-02  3.8255e-03  4.8676e-02  8.4768e-03  0:02:45 1592
   409  9.7596e-03  1.0856e-02  3.8089e-03  4.7530e-02  9.7479e-03  0:02:12 1591
   410  1.1117e-02  1.1083e-02  3.7901e-03  4.6001e-02  1.1104e-02  0:01:45 1590
   411  1.2359e-02  1.1291e-02  3.7713e-03  4.4215e-02  1.2346e-02  0:01:24 1589
   412  1.3439e-02  1.1486e-02  3.7525e-03  4.2514e-02  1.3425e-02  0:06:25 1588
   413  1.4444e-02  1.1666e-02  3.7338e-03  4.0787e-02  1.4430e-02  0:05:08 1587
   414  1.5474e-02  1.1810e-02  3.7252e-03  3.9038e-02  1.5460e-02  0:04:06 1586
   415  1.6549e-02  1.1972e-02  3.7031e-03  3.6946e-02  1.6534e-02  0:03:17 1585
   416  1.7585e-02  1.2079e-02  3.6925e-03  3.3606e-02  1.7570e-02  0:02:37 1584
   417  1.8521e-02  1.2185e-02  3.6791e-03  3.0684e-02  1.8506e-02  0:02:06 1583
   418  1.9336e-02  1.2268e-02  3.6641e-03  2.8289e-02  1.9321e-02  0:06:57 1582

  iter  continuity  x-velocity  y-velocity  z-velocity      energy     time/iter
   419  2.0052e-02  1.2330e-02  3.6589e-03  2.6386e-02  2.0037e-02  0:05:33 1581
   420  2.0707e-02  1.2371e-02  3.6483e-03  2.4762e-02  2.0692e-02  0:04:27 1580
   421  2.1331e-02  1.2397e-02  3.6429e-03  2.3408e-02  2.1317e-02  0:03:33 1579
   422  2.1935e-02  1.2406e-02  3.6407e-03  2.2419e-02  2.1921e-02  0:02:50 1578
   423  2.2509e-02  1.2394e-02  3.6392e-03  2.1829e-02  2.2495e-02  0:02:16 1577
   424  2.3035e-02  1.2388e-02  3.6344e-03  2.1662e-02  2.3022e-02  0:01:49 1576
   425  2.3499e-02  1.2349e-02  3.6306e-03  2.1887e-02  2.3487e-02  0:06:42 1575
   426  2.3895e-02  1.2302e-02  3.6291e-03  2.2439e-02  2.3883e-02  0:05:21 1574
   427  2.4220e-02  1.2245e-02  3.6254e-03  2.3288e-02  2.4208e-02  0:04:17 1573
   428  2.4487e-02  1.2150e-02  3.6301e-03  2.4367e-02  2.4476e-02  0:03:25 1572
   429  2.4710e-02  1.2058e-02  3.6329e-03  2.5609e-02  2.4700e-02  0:02:44 1571

  iter  continuity  x-velocity  y-velocity  z-velocity      energy     time/iter
   430  2.4892e-02  1.1949e-02  3.6291e-03  2.6972e-02  2.4883e-02  0:02:11 1570
   431  2.5031e-02  1.1830e-02  3.6257e-03  2.8332e-02  2.5023e-02  0:01:45 1569
   432  2.5125e-02  1.1701e-02  3.6264e-03  2.9659e-02  2.5118e-02  0:06:38 1568
   433  2.5174e-02  1.1549e-02  3.6242e-03  3.0902e-02  2.5167e-02  0:05:18 1567
   434  2.5183e-02  1.1403e-02  3.6174e-03  3.2071e-02  2.5178e-02  0:04:14 1566
   435  2.5159e-02  1.1239e-02  3.6122e-03  3.3092e-02  2.5154e-02  0:03:23 1565
   436  2.5102e-02  1.1056e-02  3.6095e-03  3.4072e-02  2.5098e-02  0:02:42 1564
   437  2.5013e-02  1.0881e-02  3.5996e-03  3.5012e-02  2.5010e-02  0:02:10 1563
   438  2.4888e-02  1.0701e-02  3.5873e-03  3.5880e-02  2.4886e-02  0:01:44 1562
   439  2.4727e-02  1.0496e-02  3.5752e-03  3.6673e-02  2.4726e-02  0:06:35 1561
   440  2.4532e-02  1.0291e-02  3.5603e-03  3.7484e-02  2.4531e-02  0:05:16 1560

  iter  continuity  x-velocity  y-velocity  z-velocity      energy     time/iter
   441  2.4306e-02  1.0098e-02  3.5356e-03  3.8399e-02  2.4306e-02  0:04:13 1559
   442  2.4052e-02  9.8785e-03  3.5189e-03  3.9166e-02  2.4053e-02  0:03:22 1558
   443  2.3773e-02  9.6573e-03  3.5018e-03  3.9834e-02  2.3775e-02  0:02:41 1557
   444  2.3470e-02  9.4577e-03  3.4712e-03  4.0197e-02  2.3472e-02  0:02:09 1556
   445  2.3139e-02  9.2291e-03  3.4430e-03  4.0439e-02  2.3141e-02  0:01:43 1555
   446  2.2782e-02  8.9924e-03  3.4128e-03  4.0575e-02  2.2785e-02  0:06:33 1554
   447  2.2401e-02  8.7645e-03  3.3781e-03  4.0270e-02  2.2404e-02  0:05:14 1553
   448  2.1998e-02  8.5541e-03  3.3410e-03  4.0117e-02  2.2002e-02  0:04:11 1552
   449  2.1575e-02  8.3263e-03  3.3072e-03  3.9431e-02  2.1579e-02  0:03:21 1551
   450  2.1133e-02  8.0998e-03  3.2717e-03  3.9594e-02  2.1138e-02  0:02:41 1550
   451  2.0674e-02  7.9054e-03  3.2213e-03  3.8627e-02  2.0679e-02  0:02:08 1549

  iter  continuity  x-velocity  y-velocity  z-velocity      energy     time/iter
   452  2.0194e-02  7.6774e-03  3.1794e-03  3.7421e-02  2.0200e-02  0:01:43 1548
   453  1.9697e-02  7.4238e-03  3.1386e-03  3.6447e-02  1.9703e-02  0:06:32 1547
   454  1.9183e-02  7.1903e-03  3.0892e-03  3.5508e-02  1.9190e-02  0:05:13 1546
   455  1.8656e-02  7.0110e-03  3.0298e-03  3.4720e-02  1.8662e-02  0:04:10 1545
   456  1.8115e-02  6.8559e-03  2.9792e-03  3.3444e-02  1.8122e-02  0:03:20 1544
   457  1.7562e-02  6.6613e-03  2.9304e-03  3.3112e-02  1.7569e-02  0:02:40 1543
   458  1.6995e-02  6.4084e-03  2.8934e-03  3.1449e-02  1.7002e-02  0:02:08 1542
   459  1.6419e-02  6.2682e-03  2.8283e-03  2.9344e-02  1.6426e-02  0:01:42 1541
   460  1.5831e-02  6.1182e-03  2.7605e-03  3.1579e-02  1.5838e-02  0:06:30 1540
   461  1.5234e-02  5.9932e-03  2.6957e-03  2.6398e-02  1.5241e-02  0:05:12 1539
   462  1.4610e-02  5.7761e-03  2.6449e-03  2.8683e-02  1.4617e-02  0:04:09 1538

  iter  continuity  x-velocity  y-velocity  z-velocity      energy     time/iter
   463  1.3969e-02  5.5931e-03  2.5935e-03  2.4076e-02  1.3976e-02  0:03:19 1537
   464  1.3315e-02  5.4010e-03  2.5519e-03  2.2155e-02  1.3321e-02  0:02:39 1536
   465  1.2655e-02  5.3780e-03  2.4928e-03  2.4371e-02  1.2662e-02  0:07:14 1535
   466  1.1986e-02  5.3443e-03  2.4176e-03  2.2331e-02  1.1992e-02  0:05:47 1534
   467  1.1306e-02  5.2535e-03  2.3558e-03  1.9215e-02  1.1312e-02  0:04:38 1533
   468  1.0615e-02  5.1386e-03  2.2889e-03  1.8600e-02  1.0621e-02  0:03:42 1532
   469  9.9176e-03  5.0687e-03  2.2380e-03  1.9604e-02  9.9230e-03  0:02:57 1531
   470  9.2151e-03  4.9896e-03  2.1873e-03  1.6860e-02  9.2202e-03  0:02:22 1530
   471  8.5085e-03  4.9346e-03  2.1563e-03  1.5888e-02  8.5132e-03  0:01:53 1529
   472  7.8034e-03  4.9526e-03  2.0991e-03  1.5168e-02  7.8078e-03  0:06:36 1528
   473  7.0823e-03  4.9092e-03  2.0502e-03  1.4918e-02  7.0864e-03  0:05:17 1527

  iter  continuity  x-velocity  y-velocity  z-velocity      energy     time/iter
   474  6.3604e-03  4.9550e-03  1.9843e-03  1.4842e-02  6.3640e-03  0:04:13 1526
   475  5.6454e-03  4.9372e-03  1.9210e-03  1.4920e-02  5.6486e-03  0:03:22 1525
   476  4.9592e-03  5.0206e-03  1.8785e-03  1.5198e-02  4.9621e-03  0:02:42 1524
   477  4.2563e-03  5.1064e-03  1.8351e-03  1.5666e-02  4.2588e-03  0:02:09 1523
   478  3.5564e-03  5.0458e-03  1.8328e-03  1.6272e-02  3.5583e-03  0:01:43 1522
   479  2.9844e-03  5.0898e-03  1.8077e-03  1.6893e-02  2.9859e-03  0:06:27 1521
   480  2.6016e-03  5.1913e-03  1.7695e-03  1.7555e-02  2.6027e-03  0:05:09 1520
   481  2.5312e-03  5.2929e-03  1.7269e-03  1.8181e-02  2.5320e-03  0:04:07 1519
   482  2.7979e-03  5.3690e-03  1.6863e-03  1.8795e-02  2.7988e-03  0:03:18 1518
   483  3.2878e-03  5.4540e-03  1.6671e-03  1.9841e-02  3.2889e-03  0:02:38 1517
   484  3.8897e-03  5.6093e-03  1.6496e-03  2.0995e-02  3.8911e-03  0:02:06 1516

  iter  continuity  x-velocity  y-velocity  z-velocity      energy     time/iter
   485  4.5107e-03  5.6322e-03  1.6451e-03  2.2070e-02  4.5124e-03  0:01:41 1515
   486  5.1322e-03  5.6691e-03  1.6814e-03  2.3008e-02  5.1342e-03  0:06:24 1514
   487  5.7394e-03  5.8190e-03  1.6873e-03  2.3747e-02  5.7417e-03  0:05:07 1513
   488  6.3208e-03  5.9460e-03  1.6945e-03  2.4386e-02  6.3233e-03  0:04:05 1512
   489  6.8718e-03  6.0619e-03  1.7045e-03  2.4950e-02  6.8745e-03  0:03:16 1511
   490  7.3897e-03  6.1390e-03  1.7206e-03  2.5475e-02  7.3926e-03  0:02:37 1510
   491  7.8811e-03  6.2645e-03  1.7528e-03  2.6027e-02  7.8841e-03  0:02:05 1509
   492  8.3439e-03  6.3686e-03  1.7877e-03  2.6644e-02  8.3471e-03  0:01:40 1508
   493  8.7752e-03  6.4133e-03  1.8372e-03  2.7193e-02  8.7785e-03  0:06:21 1507
   494  9.1824e-03  6.4897e-03  1.9116e-03  2.7721e-02  9.1857e-03  0:05:05 1506
   495  9.5674e-03  6.6382e-03  1.9594e-03  2.8163e-02  9.5708e-03  0:04:04 1505

  iter  continuity  x-velocity  y-velocity  z-velocity      energy     time/iter
   496  9.9276e-03  6.7205e-03  2.0179e-03  2.8526e-02  9.9310e-03  0:03:15 1504
   497  1.0267e-02  6.8329e-03  2.0787e-03  2.8811e-02  1.0270e-02  0:02:36 1503
   498  1.0582e-02  6.9116e-03  2.1420e-03  2.9040e-02  1.0585e-02  0:02:05 1502
   499  1.0876e-02  7.0022e-03  2.2083e-03  2.9235e-02  1.0880e-02  0:01:40 1501
   500  1.1151e-02  7.0862e-03  2.2739e-03  2.9377e-02  1.1155e-02  0:06:20 1500
   501  1.1404e-02  7.1370e-03  2.3385e-03  2.9500e-02  1.1408e-02  0:05:04 1499
   502  1.1639e-02  7.1939e-03  2.4270e-03  2.9564e-02  1.1642e-02  0:04:03 1498
   503  1.1857e-02  7.2967e-03  2.4885e-03  2.9592e-02  1.1860e-02  0:03:14 1497
   504  1.2056e-02  7.3468e-03  2.5486e-03  2.9523e-02  1.2059e-02  0:02:35 1496
   505  1.2238e-02  7.3949e-03  2.6075e-03  2.9343e-02  1.2241e-02  0:02:04 1495
   506  1.2403e-02  7.4187e-03  2.6732e-03  2.9073e-02  1.2405e-02  0:06:38 1494

  iter  continuity  x-velocity  y-velocity  z-velocity      energy     time/iter
   507  1.2550e-02  7.4055e-03  2.7336e-03  2.8731e-02  1.2552e-02  0:05:18 1493
   508  1.2682e-02  7.4365e-03  2.7954e-03  2.8334e-02  1.2684e-02  0:04:14 1492
   509  1.2798e-02  7.4703e-03  2.8427e-03  2.7834e-02  1.2800e-02  0:03:23 1491
   510  1.2894e-02  7.4248e-03  2.9026e-03  2.7210e-02  1.2896e-02  0:02:43 1490
   511  1.2977e-02  7.4641e-03  2.9512e-03  2.6484e-02  1.2979e-02  0:02:10 1489
   512  1.3045e-02  7.4921e-03  2.9883e-03  2.5687e-02  1.3046e-02  0:01:44 1488
   513  1.3095e-02  7.4445e-03  3.0272e-03  2.4861e-02  1.3096e-02  0:06:20 1487
   514  1.3131e-02  7.4151e-03  3.0606e-03  2.4045e-02  1.3132e-02  0:05:04 1486
   515  1.3151e-02  7.3695e-03  3.0893e-03  2.3216e-02  1.3152e-02  0:04:03 1485
   516  1.3157e-02  7.3136e-03  3.1203e-03  2.2359e-02  1.3157e-02  0:03:14 1484
   517  1.3147e-02  7.2230e-03  3.1456e-03  2.1467e-02  1.3147e-02  0:02:35 1483

  iter  continuity  x-velocity  y-velocity  z-velocity      energy     time/iter
   518  1.3122e-02  7.1461e-03  3.1677e-03  2.0532e-02  1.3122e-02  0:02:04 1482
   519  1.3080e-02  7.0204e-03  3.1870e-03  1.9580e-02  1.3080e-02  0:06:36 1481
   520  1.3026e-02  6.9475e-03  3.2058e-03  1.8617e-02  1.3025e-02  0:05:16 1480
   521  1.2957e-02  6.9014e-03  3.2029e-03  1.7665e-02  1.2957e-02  0:04:13 1479
   522  1.2874e-02  6.8053e-03  3.2021e-03  1.6747e-02  1.2873e-02  0:03:22 1478
   523  1.2775e-02  6.6575e-03  3.2040e-03  1.5877e-02  1.2774e-02  0:02:42 1477
   524  1.2662e-02  6.4680e-03  3.2052e-03  1.5073e-02  1.2661e-02  0:02:09 1476
   525  1.2535e-02  6.3270e-03  3.1944e-03  1.4351e-02  1.2534e-02  0:01:43 1475
   526  1.2394e-02  6.1863e-03  3.1796e-03  1.3716e-02  1.2392e-02  0:06:17 1474
   527  1.2239e-02  6.0514e-03  3.1631e-03  1.3202e-02  1.2237e-02  0:05:02 1473
   528  1.2068e-02  5.8928e-03  3.1439e-03  1.2809e-02  1.2066e-02  0:04:01 1472

  iter  continuity  x-velocity  y-velocity  z-velocity      energy     time/iter
   529  1.1882e-02  5.6843e-03  3.1332e-03  1.2549e-02  1.1880e-02  0:03:13 1471
   530  1.1686e-02  5.5610e-03  3.1137e-03  1.2469e-02  1.1683e-02  0:02:34 1470
   531  1.1476e-02  5.4533e-03  3.0786e-03  1.2515e-02  1.1473e-02  0:02:03 1469
   532  1.1252e-02  5.3066e-03  3.0422e-03  1.2732e-02  1.1249e-02  0:06:32 1468
   533  1.1014e-02  5.0627e-03  3.0140e-03  1.3074e-02  1.1012e-02  0:05:13 1467
   534  1.0765e-02  4.8786e-03  2.9734e-03  1.3499e-02  1.0763e-02  0:04:11 1466
   535  1.0503e-02  4.7054e-03  2.9318e-03  1.3949e-02  1.0500e-02  0:03:20 1465
   536  1.0228e-02  4.5686e-03  2.8929e-03  1.4416e-02  1.0225e-02  0:02:40 1464
   537  9.9397e-03  4.4216e-03  2.8477e-03  1.4926e-02  9.9370e-03  0:02:08 1463
   538  9.6394e-03  4.3190e-03  2.8013e-03  1.5455e-02  9.6367e-03  0:06:35 1462
   539  9.3258e-03  4.2045e-03  2.7555e-03  1.5977e-02  9.3233e-03  0:05:16 1461

  iter  continuity  x-velocity  y-velocity  z-velocity      energy     time/iter
   540  8.9946e-03  3.9867e-03  2.7235e-03  1.6468e-02  8.9920e-03  0:04:12 1460
   541  8.6538e-03  3.9207e-03  2.6767e-03  1.6920e-02  8.6513e-03  0:03:22 1459
   542  8.2994e-03  3.7861e-03  2.6243e-03  1.7353e-02  8.2970e-03  0:02:41 1458
   543  7.9337e-03  3.7078e-03  2.5729e-03  1.7771e-02  7.9314e-03  0:02:09 1457
   544  7.5549e-03  3.5793e-03  2.5197e-03  1.8248e-02  7.5528e-03  0:01:43 1456
   545  7.1651e-03  3.5202e-03  2.4687e-03  1.8598e-02  7.1630e-03  0:06:13 1455
   546  6.7648e-03  3.4990e-03  2.4183e-03  1.8701e-02  6.7629e-03  0:04:59 1454
   547  6.3541e-03  3.5526e-03  2.3685e-03  1.9141e-02  6.3523e-03  0:03:59 1453
   548  5.9327e-03  3.5964e-03  2.3203e-03  1.9419e-02  5.9311e-03  0:03:11 1452
   549  5.5015e-03  3.6565e-03  2.2710e-03  1.9076e-02  5.5001e-03  0:07:23 1451
   550  5.0623e-03  3.7743e-03  2.2244e-03  1.8933e-02  5.0610e-03  0:05:54 1450

  iter  continuity  x-velocity  y-velocity  z-velocity      energy     time/iter
   551  4.6142e-03  3.8913e-03  2.1774e-03  1.8836e-02  4.6131e-03  0:04:43 1449
   552  4.1607e-03  3.9562e-03  2.1474e-03  1.8496e-02  4.1596e-03  0:03:46 1448
   553  3.7086e-03  3.9895e-03  2.1230e-03  1.8192e-02  3.7076e-03  0:07:50 1447
   554  3.2673e-03  4.1447e-03  2.0800e-03  1.7933e-02  3.2663e-03  0:06:16 1446
   555  2.8437e-03  4.3047e-03  2.0381e-03  1.7612e-02  2.8426e-03  0:05:01 1445
   556  2.4586e-03  4.4543e-03  2.0071e-03  1.7293e-02  2.4573e-03  0:04:00 1444
   557  2.1507e-03  4.5944e-03  1.9832e-03  1.6982e-02  2.1490e-03  0:08:01 1443
   558  1.9713e-03  4.7576e-03  1.9613e-03  1.6640e-02  1.9690e-03  0:06:24 1442
   559  1.9747e-03  4.9516e-03  1.9409e-03  1.6365e-02  1.9717e-03  0:05:07 1441
   560  2.1790e-03  5.1689e-03  1.9277e-03  1.6141e-02  2.1755e-03  0:08:54 1440
   561  2.5508e-03  5.3345e-03  1.9130e-03  1.5949e-02  2.5469e-03  0:07:07 1439

  iter  continuity  x-velocity  y-velocity  z-velocity      energy     time/iter
   562  3.0484e-03  5.5340e-03  1.9011e-03  1.5891e-02  3.0443e-03  0:05:41 1438
   563  3.6358e-03  5.7325e-03  1.8978e-03  1.5876e-02  3.6314e-03  0:04:33 1437
   564  4.2925e-03  5.8956e-03  1.9022e-03  1.5854e-02  4.2879e-03  0:08:25 1436
   565  5.0138e-03  6.0273e-03  1.9167e-03  1.5782e-02  5.0089e-03  0:06:44 1435
   566  5.7886e-03  6.2063e-03  1.9221e-03  1.5694e-02  5.7833e-03  0:05:23 1434
   567  6.6231e-03  6.4012e-03  1.9250e-03  1.5613e-02  6.6176e-03  0:04:18 1433
   568  7.4928e-03  6.5900e-03  1.9351e-03  1.5580e-02  7.4870e-03  0:08:13 1432
   569  8.4379e-03  6.7796e-03  1.9500e-03  1.5612e-02  8.4318e-03  0:06:34 1431
   570  9.3599e-03  6.9629e-03  1.9679e-03  1.5698e-02  9.3536e-03  0:05:15 1430
   571  1.0168e-02  7.1287e-03  1.9915e-03  1.5812e-02  1.0161e-02  0:04:12 1429
   572  1.0881e-02  7.2997e-03  2.0192e-03  1.5914e-02  1.0874e-02  0:08:07 1428

  iter  continuity  x-velocity  y-velocity  z-velocity      energy     time/iter
   573  1.1563e-02  7.4588e-03  2.0490e-03  1.6027e-02  1.1556e-02  0:06:29 1427
   574  1.2264e-02  7.6027e-03  2.0810e-03  1.6135e-02  1.2257e-02  0:05:11 1426
   575  1.3015e-02  7.7466e-03  2.1141e-03  1.6237e-02  1.3007e-02  0:04:09 1425
   576  1.3837e-02  7.8842e-03  2.1489e-03  1.6339e-02  1.3830e-02  0:08:04 1424
   577  1.4612e-02  7.9962e-03  2.1865e-03  1.6422e-02  1.4605e-02  0:06:27 1423
   578  1.5274e-02  8.0755e-03  2.2311e-03  1.6541e-02  1.5267e-02  0:05:09 1422
   579  1.5834e-02  8.1522e-03  2.2687e-03  1.6645e-02  1.5827e-02  0:08:51 1421
   580  1.6351e-02  8.2211e-03  2.3067e-03  1.6310e-02  1.6344e-02  0:07:05 1420
   581  1.6841e-02  8.2939e-03  2.3415e-03  1.5958e-02  1.6835e-02  0:05:40 1419
   582  1.7316e-02  8.3545e-03  2.3797e-03  1.5623e-02  1.7310e-02  0:04:31 1418
   583  1.7773e-02  8.3916e-03  2.4191e-03  1.5336e-02  1.7767e-02  0:08:20 1417

  iter  continuity  x-velocity  y-velocity  z-velocity      energy     time/iter
   584  1.8202e-02  8.4227e-03  2.4549e-03  1.5199e-02  1.8196e-02  0:06:40 1416
   585  1.8589e-02  8.4412e-03  2.4902e-03  1.5071e-02  1.8583e-02  0:05:20 1415
   586  1.8931e-02  8.4374e-03  2.5255e-03  1.4895e-02  1.8926e-02  0:08:58 1414
   587  1.9232e-02  8.4221e-03  2.5567e-03  1.4703e-02  1.9228e-02  0:07:10 1413
   588  1.9499e-02  8.3866e-03  2.5850e-03  1.4539e-02  1.9494e-02  0:05:44 1412
   589  1.9732e-02  8.3337e-03  2.6119e-03  1.4369e-02  1.9729e-02  0:04:35 1411
   590  1.9931e-02  8.2721e-03  2.6348e-03  1.4148e-02  1.9928e-02  0:08:22 1410
   591  2.0092e-02  8.2023e-03  2.6532e-03  1.3888e-02  2.0089e-02  0:06:41 1409
   592  2.0212e-02  8.1148e-03  2.6700e-03  1.3573e-02  2.0210e-02  0:05:21 1408
   593  2.0291e-02  7.9943e-03  2.6883e-03  1.3221e-02  2.0289e-02  0:08:58 1407
   594  2.0331e-02  7.8741e-03  2.6979e-03  1.2849e-02  2.0330e-02  0:07:10 1406

  iter  continuity  x-velocity  y-velocity  z-velocity      energy     time/iter
   595  2.0336e-02  7.7504e-03  2.7020e-03  1.2463e-02  2.0336e-02  0:05:44 1405
   596  2.0307e-02  7.6092e-03  2.7036e-03  1.2076e-02  2.0306e-02  0:04:35 1404
   597  2.0239e-02  7.4479e-03  2.7023e-03  1.1701e-02  2.0239e-02  0:08:20 1403
   598  2.0131e-02  7.2742e-03  2.6959e-03  1.1333e-02  2.0132e-02  0:06:40 1402
   599  1.9985e-02  7.0931e-03  2.6858e-03  1.1035e-02  1.9986e-02  0:05:20 1401
   600  1.9803e-02  6.9026e-03  2.6727e-03  1.0746e-02  1.9804e-02  0:08:56 1400
   601  1.9588e-02  6.7042e-03  2.6568e-03  1.0564e-02  1.9590e-02  0:07:08 1399
   602  1.9345e-02  6.5022e-03  2.6355e-03  9.8685e-03  1.9347e-02  0:05:42 1398
   603  1.9073e-02  6.2917e-03  2.6105e-03  9.2583e-03  1.9076e-02  0:04:34 1397
   604  1.8772e-02  6.0783e-03  2.5828e-03  8.9261e-03  1.8775e-02  0:08:18 1396
   605  1.8442e-02  5.8538e-03  2.5526e-03  8.7196e-03  1.8445e-02  0:06:38 1395

  iter  continuity  x-velocity  y-velocity  z-velocity      energy     time/iter
   606  1.8082e-02  5.6212e-03  2.5186e-03  8.4245e-03  1.8086e-02  0:05:18 1394
   607  1.7691e-02  5.3868e-03  2.4820e-03  8.4490e-03  1.7695e-02  0:08:53 1393
   608  1.7270e-02  5.1559e-03  2.4428e-03  8.6017e-03  1.7274e-02  0:07:06 1392
   609  1.6822e-02  4.9211e-03  2.4022e-03  8.4478e-03  1.6826e-02  0:05:41 1391
   610  1.6348e-02  4.6824e-03  2.3591e-03  8.8330e-03  1.6352e-02  0:04:32 1390
   611  1.5849e-02  4.4581e-03  2.3125e-03  9.1946e-03  1.5854e-02  0:08:15 1389
   612  1.5326e-02  4.2580e-03  2.2646e-03  8.7782e-03  1.5331e-02  0:06:36 1388
   613  1.4781e-02  4.0647e-03  2.2133e-03  9.5593e-03  1.4786e-02  0:05:17 1387
   614  1.4214e-02  3.8759e-03  2.1629e-03  9.4344e-03  1.4219e-02  0:08:50 1386
   615  1.3625e-02  3.7031e-03  2.1118e-03  9.4333e-03  1.3630e-02  0:07:04 1385
   616  1.3016e-02  3.5374e-03  2.0589e-03  9.7038e-03  1.3021e-02  0:05:39 1384

  iter  continuity  x-velocity  y-velocity  z-velocity      energy     time/iter
   617  1.2389e-02  3.3864e-03  2.0066e-03  9.6824e-03  1.2394e-02  0:04:31 1383
   618  1.1744e-02  3.2654e-03  1.9542e-03  9.7210e-03  1.1748e-02  0:08:13 1382
   619  1.1081e-02  3.1633e-03  1.9031e-03  9.9119e-03  1.1085e-02  0:06:34 1381
   620  1.0403e-02  3.0880e-03  1.8514e-03  1.0137e-02  1.0407e-02  0:05:15 1380
   621  9.7103e-03  3.0627e-03  1.8010e-03  1.0385e-02  9.7145e-03  0:08:48 1379
   622  9.0060e-03  3.0413e-03  1.7528e-03  1.0617e-02  9.0099e-03  0:07:02 1378
   623  8.2937e-03  3.0389e-03  1.7054e-03  1.0835e-02  8.2973e-03  0:05:37 1377
   624  7.5622e-03  3.0530e-03  1.6609e-03  1.1051e-02  7.5656e-03  0:04:30 1376
   625  6.8189e-03  3.0912e-03  1.6221e-03  1.1285e-02  6.8219e-03  0:08:11 1375
   626  6.0785e-03  3.1696e-03  1.5836e-03  1.1365e-02  6.0812e-03  0:06:32 1374
   627  5.3577e-03  3.2761e-03  1.5486e-03  1.1514e-02  5.3601e-03  0:05:13 1373

  iter  continuity  x-velocity  y-velocity  z-velocity      energy     time/iter
   628  4.6356e-03  3.3883e-03  1.5182e-03  1.1684e-02  4.6376e-03  0:04:11 1372
   629  3.8892e-03  3.4997e-03  1.4913e-03  1.1816e-02  3.8908e-03  0:07:55 1371
   630  3.2090e-03  3.6100e-03  1.4703e-03  1.1905e-02  3.2101e-03  0:06:19 1370
   631  2.6809e-03  3.7310e-03  1.4571e-03  1.1933e-02  2.6816e-03  0:05:03 1369
   632  2.4149e-03  3.8839e-03  1.4465e-03  1.1953e-02  2.4153e-03  0:08:36 1368
   633  2.5236e-03  4.0130e-03  1.4371e-03  1.1939e-02  2.5239e-03  0:06:53 1367
   634  2.9405e-03  4.1311e-03  1.4362e-03  1.1945e-02  2.9409e-03  0:05:30 1366
   635  3.5123e-03  4.2518e-03  1.4397e-03  1.1929e-02  3.5129e-03  0:04:24 1365
   636  4.1365e-03  4.3630e-03  1.4487e-03  1.1918e-02  4.1374e-03  0:08:04 1364
   637  4.7633e-03  4.4820e-03  1.4614e-03  1.1901e-02  4.7644e-03  0:06:27 1363
   638  5.3692e-03  4.5991e-03  1.4774e-03  1.1901e-02  5.3705e-03  0:05:09 1362

  iter  continuity  x-velocity  y-velocity  z-velocity      energy     time/iter
   639  5.9442e-03  4.7025e-03  1.4994e-03  1.1888e-02  5.9458e-03  0:08:39 1361
   640  6.4839e-03  4.7981e-03  1.5297e-03  1.1839e-02  6.4857e-03  0:06:55 1360
   641  6.9866e-03  4.9054e-03  1.5611e-03  1.1783e-02  6.9885e-03  0:05:32 1359
   642  7.4537e-03  5.0052e-03  1.5943e-03  1.1780e-02  7.4557e-03  0:08:57 1358
   643  7.8839e-03  5.0918e-03  1.6312e-03  1.1787e-02  7.8860e-03  0:07:09 1357
   644  8.2790e-03  5.1656e-03  1.6732e-03  1.1843e-02  8.2811e-03  0:05:43 1356
   645  8.6408e-03  5.2401e-03  1.7154e-03  1.1941e-02  8.6429e-03  0:04:34 1355
   646  8.9731e-03  5.3176e-03  1.7616e-03  1.2043e-02  8.9752e-03  0:08:10 1354
   647  9.2768e-03  5.3779e-03  1.8082e-03  1.2574e-02  9.2789e-03  0:06:32 1353
   648  9.5526e-03  5.4216e-03  1.8550e-03  1.3174e-02  9.5547e-03  0:05:13 1352
   649  9.8011e-03  5.4519e-03  1.9069e-03  1.3639e-02  9.8031e-03  0:08:41 1351

  iter  continuity  x-velocity  y-velocity  z-velocity      energy     time/iter
   650  1.0024e-02  5.4899e-03  1.9534e-03  1.3923e-02  1.0026e-02  0:06:56 1350
   651  1.0222e-02  5.5254e-03  1.9973e-03  1.4040e-02  1.0224e-02  0:05:33 1349
   652  1.0395e-02  5.5543e-03  2.0395e-03  1.4034e-02  1.0397e-02  0:08:56 1348
   653  1.0546e-02  5.5792e-03  2.0801e-03  1.3948e-02  1.0547e-02  0:07:08 1347
   654  1.0675e-02  5.6108e-03  2.1164e-03  1.3826e-02  1.0676e-02  0:05:42 1346
   655  1.0782e-02  5.6054e-03  2.1573e-03  1.3697e-02  1.0783e-02  0:04:34 1345
   656  1.0869e-02  5.5968e-03  2.1977e-03  1.3568e-02  1.0870e-02  0:08:08 1344
   657  1.0937e-02  5.5880e-03  2.2318e-03  1.3444e-02  1.0938e-02  0:06:30 1343
   658  1.0987e-02  5.5614e-03  2.2628e-03  1.3299e-02  1.0988e-02  0:05:12 1342
   659  1.1019e-02  5.5401e-03  2.2940e-03  1.3160e-02  1.1020e-02  0:08:37 1341
   660  1.1035e-02  5.5221e-03  2.3150e-03  1.3022e-02  1.1036e-02  0:06:53 1340

  iter  continuity  x-velocity  y-velocity  z-velocity      energy     time/iter
   661  1.1035e-02  5.5010e-03  2.3327e-03  1.2883e-02  1.1035e-02  0:05:31 1339
   662  1.1019e-02  5.4799e-03  2.3499e-03  1.2751e-02  1.1019e-02  0:08:52 1338
   663  1.0988e-02  5.4410e-03  2.3636e-03  1.2608e-02  1.0989e-02  0:07:05 1337
   664  1.0943e-02  5.3848e-03  2.3746e-03  1.2458e-02  1.0943e-02  0:05:40 1336
   665  1.0883e-02  5.3140e-03  2.3821e-03  1.2299e-02  1.0883e-02  0:04:32 1335
   666  1.0810e-02  5.2302e-03  2.3894e-03  1.2148e-02  1.0810e-02  0:08:04 1334
   667  1.0724e-02  5.1580e-03  2.3945e-03  1.2029e-02  1.0724e-02  0:06:27 1333
   668  1.0626e-02  5.0702e-03  2.3946e-03  1.1902e-02  1.0625e-02  0:05:09 1332
   669  1.0515e-02  4.9801e-03  2.3954e-03  1.1793e-02  1.0514e-02  0:08:33 1331
   670  1.0393e-02  4.8954e-03  2.3900e-03  1.1677e-02  1.0393e-02  0:06:50 1330
   671  1.0261e-02  4.8044e-03  2.3825e-03  1.1547e-02  1.0260e-02  0:05:28 1329

  iter  continuity  x-velocity  y-velocity  z-velocity      energy     time/iter
   672  1.0118e-02  4.7079e-03  2.3731e-03  1.1415e-02  1.0117e-02  0:04:22 1328
   673  9.9650e-03  4.6039e-03  2.3624e-03  1.1280e-02  9.9640e-03  0:07:55 1327
   674  9.8021e-03  4.5013e-03  2.3491e-03  1.1159e-02  9.8011e-03  0:06:20 1326
   675  9.6294e-03  4.3899e-03  2.3334e-03  1.1059e-02  9.6282e-03  0:05:04 1325
   676  9.4469e-03  4.2810e-03  2.3152e-03  1.0963e-02  9.4458e-03  0:08:27 1324
   677  9.2547e-03  4.1689e-03  2.2963e-03  1.0870e-02  9.2535e-03  0:06:46 1323
   678  9.0531e-03  4.0537e-03  2.2793e-03  1.0767e-02  9.0518e-03  0:05:24 1322
   679  8.8422e-03  3.9364e-03  2.2591e-03  1.0693e-02  8.8409e-03  0:04:19 1321
   680  8.6239e-03  3.8334e-03  2.2396e-03  1.0558e-02  8.6226e-03  0:03:27 1320
   681  8.3980e-03  3.7312e-03  2.2129e-03  1.0424e-02  8.3967e-03  0:02:46 1319
   682  8.1646e-03  3.6281e-03  2.1848e-03  1.0316e-02  8.1632e-03  0:06:36 1318

  iter  continuity  x-velocity  y-velocity  z-velocity      energy     time/iter
   683  7.9242e-03  3.5274e-03  2.1568e-03  1.0225e-02  7.9228e-03  0:05:17 1317
   684  7.6773e-03  3.4282e-03  2.1279e-03  1.0141e-02  7.6760e-03  0:04:13 1316
   685  7.4244e-03  3.3332e-03  2.0981e-03  1.0101e-02  7.4231e-03  0:03:22 1315
   686  7.1654e-03  3.2387e-03  2.0667e-03  1.0071e-02  7.1641e-03  0:02:42 1314
   687  6.9008e-03  3.1503e-03  2.0360e-03  1.0082e-02  6.8995e-03  0:06:32 1313
   688  6.6299e-03  3.0744e-03  2.0029e-03  1.0111e-02  6.6287e-03  0:05:13 1312
   689  6.3528e-03  3.0208e-03  1.9689e-03  1.0144e-02  6.3516e-03  0:04:10 1311
   690  6.0669e-03  2.9207e-03  1.9392e-03  1.0176e-02  6.0658e-03  0:03:20 1310
   691  5.7751e-03  2.8550e-03  1.9134e-03  1.0233e-02  5.7740e-03  0:02:40 1309
   692  5.4786e-03  2.8376e-03  1.8766e-03  1.0318e-02  5.4776e-03  0:02:08 1308
   693  5.1769e-03  2.8232e-03  1.8392e-03  1.0342e-02  5.1760e-03  0:06:04 1307

  iter  continuity  x-velocity  y-velocity  z-velocity      energy     time/iter
   694  4.8703e-03  2.8072e-03  1.8028e-03  1.0380e-02  4.8695e-03  0:04:51 1306
   695  4.5595e-03  2.7988e-03  1.7663e-03  1.0395e-02  4.5587e-03  0:03:52 1305
   696  4.2459e-03  2.8045e-03  1.7317e-03  1.0415e-02  4.2451e-03  0:03:06 1304
   697  3.9291e-03  2.8238e-03  1.6990e-03  1.0447e-02  3.9285e-03  0:02:28 1303
   698  3.6092e-03  2.8496e-03  1.6657e-03  1.0505e-02  3.6086e-03  0:01:59 1302
   699  3.2869e-03  2.9143e-03  1.6305e-03  1.0570e-02  3.2864e-03  0:05:55 1301
   700  2.9650e-03  2.9855e-03  1.5970e-03  1.0638e-02  2.9645e-03  0:04:44 1300
   701  2.6440e-03  3.0453e-03  1.5607e-03  1.0705e-02  2.6436e-03  0:03:47 1299
   702  2.3267e-03  3.0922e-03  1.5293e-03  1.0759e-02  2.3263e-03  0:03:01 1298
   703  2.0168e-03  3.0936e-03  1.5167e-03  1.0767e-02  2.0164e-03  0:02:25 1297
   704  1.7338e-03  3.1609e-03  1.4879e-03  1.0786e-02  1.7332e-03  0:01:56 1296

  iter  continuity  x-velocity  y-velocity  z-velocity      energy     time/iter
   705  1.4901e-03  3.2473e-03  1.4536e-03  1.0638e-02  1.4894e-03  0:05:52 1295
   706  1.3126e-03  3.3308e-03  1.4242e-03  1.0825e-02  1.3115e-03  0:04:41 1294
   707  1.2370e-03  3.4087e-03  1.4003e-03  1.0913e-02  1.2355e-03  0:03:45 1293
   708  1.2897e-03  3.4962e-03  1.3763e-03  1.0933e-02  1.2879e-03  0:03:00 1292
   709  1.4636e-03  3.5891e-03  1.3562e-03  1.0892e-02  1.4616e-03  0:02:24 1291
   710  1.7282e-03  3.6779e-03  1.3399e-03  1.0896e-02  1.7261e-03  0:01:55 1290
   711  2.0550e-03  3.7727e-03  1.3218e-03  1.1024e-02  2.0528e-03  0:05:50 1289
   712  2.4240e-03  3.8669e-03  1.3083e-03  1.1292e-02  2.4216e-03  0:04:39 1288
   713  2.8244e-03  3.9664e-03  1.2962e-03  1.1324e-02  2.8219e-03  0:03:43 1287
   714  3.2506e-03  4.0651e-03  1.2872e-03  1.1335e-02  3.2481e-03  0:02:59 1286
   715  3.7004e-03  4.1512e-03  1.2810e-03  1.1274e-02  3.6978e-03  0:02:23 1285

  iter  continuity  x-velocity  y-velocity  z-velocity      energy     time/iter
   716  4.1641e-03  4.2073e-03  1.2887e-03  1.1194e-02  4.1613e-03  0:01:54 1284
   717  4.6468e-03  4.3013e-03  1.2844e-03  1.1132e-02  4.6440e-03  0:05:48 1283
   718  5.1499e-03  4.3937e-03  1.2833e-03  1.1073e-02  5.1470e-03  0:04:38 1282
   719  5.6549e-03  4.4883e-03  1.2834e-03  1.1068e-02  5.6518e-03  0:03:42 1281
   720  6.1635e-03  4.5869e-03  1.2861e-03  1.0979e-02  6.1603e-03  0:02:58 1280
   721  6.6898e-03  4.6731e-03  1.2951e-03  1.0967e-02  6.6866e-03  0:02:22 1279
   722  7.2675e-03  4.7565e-03  1.3044e-03  1.0934e-02  7.2642e-03  0:01:54 1278
   723  7.7860e-03  4.8332e-03  1.3156e-03  1.0463e-02  7.7826e-03  0:01:31 1277
   724  8.2101e-03  4.8990e-03  1.3300e-03  1.0086e-02  8.2067e-03  0:05:28 1276
   725  8.5783e-03  4.9635e-03  1.3469e-03  9.8241e-03  8.5749e-03  0:04:22 1275
   726  8.9307e-03  5.0244e-03  1.3655e-03  9.6467e-03  8.9272e-03  0:03:29 1274

  iter  continuity  x-velocity  y-velocity  z-velocity      energy     time/iter
   727  9.2947e-03  5.0776e-03  1.3858e-03  9.5528e-03  9.2913e-03  0:02:47 1273
   728  9.6804e-03  5.1307e-03  1.4064e-03  9.4128e-03  9.6770e-03  0:02:14 1272
   729  1.0078e-02  5.1714e-03  1.4289e-03  9.3278e-03  1.0074e-02  0:01:47 1271
   730  1.0467e-02  5.1934e-03  1.4591e-03  9.2703e-03  1.0464e-02  0:05:40 1270
   731  1.0842e-02  5.2246e-03  1.4820e-03  9.2096e-03  1.0839e-02  0:04:31 1269
   732  1.1221e-02  5.2594e-03  1.5016e-03  9.1786e-03  1.1218e-02  0:03:37 1268
   733  1.1589e-02  5.2880e-03  1.5224e-03  9.1695e-03  1.1586e-02  0:02:53 1267
   734  1.1904e-02  5.3005e-03  1.5461e-03  9.1584e-03  1.1901e-02  0:02:19 1266
   735  1.2162e-02  5.3110e-03  1.5661e-03  9.1461e-03  1.2159e-02  0:06:04 1265
   736  1.2372e-02  5.3145e-03  1.5876e-03  9.1440e-03  1.2370e-02  0:04:51 1264
   737  1.2551e-02  5.3078e-03  1.6102e-03  9.1384e-03  1.2549e-02  0:03:52 1263

  iter  continuity  x-velocity  y-velocity  z-velocity      energy     time/iter
   738  1.2711e-02  5.2939e-03  1.6316e-03  9.1365e-03  1.2708e-02  0:03:06 1262
   739  1.2861e-02  5.2769e-03  1.6504e-03  9.1787e-03  1.2858e-02  0:02:29 1261
   740  1.3005e-02  5.2536e-03  1.6687e-03  9.4097e-03  1.3003e-02  0:01:59 1260
   741  1.3144e-02  5.2200e-03  1.6870e-03  9.1090e-03  1.3143e-02  0:01:35 1259
   742  1.3276e-02  5.1818e-03  1.7027e-03  1.0655e-02  1.3274e-02  0:05:27 1258
   743  1.3397e-02  5.1472e-03  1.7162e-03  1.0079e-02  1.3395e-02  0:04:22 1257
   744  1.3504e-02  5.1043e-03  1.7274e-03  9.1210e-03  1.3503e-02  0:03:29 1256
   745  1.3587e-02  5.0336e-03  1.7398e-03  9.6738e-03  1.3586e-02  0:02:47 1255
   746  1.3633e-02  4.9570e-03  1.7509e-03  9.0111e-03  1.3632e-02  0:02:14 1254
   747  1.3650e-02  4.8833e-03  1.7550e-03  1.0514e-02  1.3650e-02  0:01:47 1253
   748  1.3644e-02  4.8059e-03  1.7568e-03  9.9342e-03  1.3644e-02  0:05:36 1252

  iter  continuity  x-velocity  y-velocity  z-velocity      energy     time/iter
   749  1.3618e-02  4.7184e-03  1.7582e-03  8.8707e-03  1.3618e-02  0:04:28 1251
   750  1.3572e-02  4.6257e-03  1.7575e-03  1.1722e-02  1.3572e-02  0:03:35 1250
   751  1.3505e-02  4.5272e-03  1.7550e-03  1.2857e-02  1.3505e-02  0:02:52 1249
   752  1.3417e-02  4.4264e-03  1.7500e-03  8.8761e-03  1.3417e-02  0:02:17 1248
   753  1.3308e-02  4.3205e-03  1.7437e-03  1.0256e-02  1.3309e-02  0:01:50 1247
   754  1.3179e-02  4.2076e-03  1.7356e-03  1.1027e-02  1.3180e-02  0:05:37 1246
   755  1.3032e-02  4.0895e-03  1.7255e-03  1.0520e-02  1.3033e-02  0:04:29 1245
   756  1.2865e-02  3.9698e-03  1.7124e-03  8.9677e-03  1.2866e-02  0:03:35 1244
   757  1.2679e-02  3.8500e-03  1.6981e-03  8.7046e-03  1.2681e-02  0:02:52 1243
   758  1.2475e-02  3.7296e-03  1.6811e-03  8.5054e-03  1.2477e-02  0:02:18 1242
   759  1.2252e-02  3.6027e-03  1.6635e-03  8.4646e-03  1.2254e-02  0:01:50 1241

  iter  continuity  x-velocity  y-velocity  z-velocity      energy     time/iter
   760  1.2010e-02  3.4806e-03  1.6431e-03  9.7781e-03  1.2012e-02  0:05:36 1240
   761  1.1751e-02  3.3605e-03  1.6210e-03  7.6682e-03  1.1753e-02  0:04:28 1239
   762  1.1475e-02  3.2300e-03  1.5980e-03  1.0169e-02  1.1476e-02  0:03:35 1238
   763  1.1182e-02  3.0930e-03  1.5771e-03  8.7494e-03  1.1184e-02  0:02:52 1237
   764  1.0873e-02  2.9671e-03  1.5516e-03  7.7066e-03  1.0875e-02  0:02:17 1236
   765  1.0548e-02  2.8440e-03  1.5244e-03  7.2388e-03  1.0550e-02  0:01:50 1235
   766  1.0200e-02  2.7295e-03  1.4951e-03  6.9828e-03  1.0202e-02  0:01:28 1234
   767  9.8305e-03  2.6247e-03  1.4645e-03  7.1571e-03  9.8327e-03  0:05:17 1233
   768  9.4422e-03  2.5492e-03  1.4355e-03  6.9178e-03  9.4445e-03  0:04:13 1232
   769  9.0406e-03  2.4788e-03  1.4029e-03  7.0265e-03  9.0428e-03  0:03:22 1231
   770  8.6307e-03  2.4047e-03  1.3720e-03  6.8572e-03  8.6329e-03  0:02:42 1230

  iter  continuity  x-velocity  y-velocity  z-velocity      energy     time/iter
   771  8.2121e-03  2.3300e-03  1.3417e-03  6.9575e-03  8.2143e-03  0:02:09 1229
   772  7.7870e-03  2.2655e-03  1.3101e-03  7.0888e-03  7.7891e-03  0:01:43 1228
   773  7.3543e-03  2.2073e-03  1.2793e-03  6.6940e-03  7.3563e-03  0:05:28 1227
   774  6.9130e-03  2.1687e-03  1.2490e-03  6.8126e-03  6.9150e-03  0:04:22 1226
   775  6.4639e-03  2.1475e-03  1.2178e-03  6.6324e-03  6.4658e-03  0:03:30 1225
   776  5.9711e-03  2.1376e-03  1.1879e-03  6.5356e-03  5.9728e-03  0:02:48 1224
   777  5.4268e-03  2.1697e-03  1.1623e-03  6.6009e-03  5.4284e-03  0:02:14 1223
   778  4.8640e-03  2.2143e-03  1.1329e-03  6.6801e-03  4.8655e-03  0:01:47 1222
   779  4.3183e-03  2.2436e-03  1.1048e-03  6.6284e-03  4.3197e-03  0:05:30 1221
   780  3.7902e-03  2.2892e-03  1.0819e-03  6.6580e-03  3.7913e-03  0:04:24 1220
   781  3.2845e-03  2.3576e-03  1.0609e-03  6.8352e-03  3.2855e-03  0:03:31 1219

  iter  continuity  x-velocity  y-velocity  z-velocity      energy     time/iter
   782  2.7788e-03  2.4339e-03  1.0434e-03  7.0341e-03  2.7796e-03  0:02:48 1218
   783  2.2560e-03  2.5130e-03  1.0256e-03  7.2263e-03  2.2565e-03  0:02:15 1217
   784  1.8140e-03  2.5902e-03  1.0099e-03  7.3786e-03  1.8142e-03  0:01:48 1216
   785  1.5468e-03  2.6611e-03  9.9776e-04  7.5202e-03  1.5467e-03  0:05:29 1215
   786  1.5342e-03  2.7386e-03  9.9116e-04  7.6499e-03  1.5340e-03  0:04:23 1214
   787  1.7464e-03  2.8331e-03  9.8399e-04  7.7653e-03  1.7462e-03  0:03:30 1213
   788  2.0907e-03  2.9457e-03  9.8065e-04  7.8982e-03  2.0906e-03  0:02:48 1212
   789  2.4931e-03  3.0366e-03  9.7761e-04  8.0497e-03  2.4931e-03  0:02:14 1211
   790  2.9125e-03  3.1137e-03  9.8232e-04  8.1987e-03  2.9126e-03  0:01:47 1210
   791  3.3300e-03  3.1810e-03  9.9339e-04  8.3671e-03  3.3303e-03  0:05:28 1209
   792  3.7395e-03  3.2589e-03  1.0064e-03  8.5150e-03  3.7399e-03  0:04:22 1208

  iter  continuity  x-velocity  y-velocity  z-velocity      energy     time/iter
   793  4.1346e-03  3.3419e-03  1.0198e-03  8.6299e-03  4.1351e-03  0:03:29 1207
   794  4.5121e-03  3.4181e-03  1.0363e-03  8.7300e-03  4.5127e-03  0:02:47 1206
   795  4.8709e-03  3.4910e-03  1.0611e-03  9.0526e-03  4.8715e-03  0:02:14 1205
   796  5.2120e-03  3.5750e-03  1.0847e-03  9.3680e-03  5.2127e-03  0:01:47 1204
   797  5.5336e-03  3.6471e-03  1.1086e-03  9.6564e-03  5.5343e-03  0:01:25 1203
   798  5.8355e-03  3.7051e-03  1.1352e-03  9.8625e-03  5.8362e-03  0:05:09 1202
   799  6.1178e-03  3.7563e-03  1.1652e-03  9.9989e-03  6.1185e-03  0:04:07 1201
   800  6.3809e-03  3.8127e-03  1.1970e-03  1.0081e-02  6.3816e-03  0:03:17 1200
   801  6.6253e-03  3.8612e-03  1.2308e-03  1.0114e-02  6.6260e-03  0:02:38 1199
   802  6.8515e-03  3.9022e-03  1.2653e-03  1.0115e-02  6.8522e-03  0:02:06 1198
   803  7.0604e-03  3.9385e-03  1.2990e-03  1.0075e-02  7.0611e-03  0:01:41 1197

  iter  continuity  x-velocity  y-velocity  z-velocity      energy     time/iter
   804  7.2513e-03  3.9575e-03  1.3327e-03  1.0017e-02  7.2520e-03  0:05:20 1196
   805  7.4254e-03  3.9769e-03  1.3692e-03  9.9486e-03  7.4260e-03  0:04:16 1195
   806  7.5831e-03  3.9993e-03  1.4011e-03  9.8651e-03  7.5837e-03  0:03:24 1194
   807  7.7244e-03  4.0144e-03  1.4312e-03  9.7947e-03  7.7250e-03  0:02:43 1193
   808  7.8498e-03  4.0229e-03  1.4603e-03  9.7080e-03  7.8503e-03  0:02:11 1192
   809  7.9597e-03  4.0261e-03  1.4879e-03  9.6304e-03  7.9601e-03  0:01:44 1191
[...]

  iter  continuity  x-velocity  y-velocity  z-velocity      energy     time/iter
  1794  8.3355e-04  4.8466e-04  1.2909e-04  4.7236e-03  8.3345e-04  0:00:47  206
  1795  8.6289e-04  4.8717e-04  1.3143e-04  4.7768e-03  8.6278e-04  0:00:37  205
  1796  8.9082e-04  4.8917e-04  1.3378e-04  4.8574e-03  8.9071e-04  0:01:10  204
  1797  9.1728e-04  4.9067e-04  1.3610e-04  4.9351e-03  9.1717e-04  0:00:56  203
  1798  9.4219e-04  4.9180e-04  1.3832e-04  5.0325e-03  9.4209e-04  0:00:45  202
  1799  9.6548e-04  4.9240e-04  1.4052e-04  5.1245e-03  9.6538e-04  0:00:35  201
  1800  9.8717e-04  4.9237e-04  1.4272e-04  5.2035e-03  9.8707e-04  0:01:08  200
  1801  1.0072e-03  4.9173e-04  1.4486e-04  5.2603e-03  1.0071e-03  0:00:54  199
  1802  1.0255e-03  4.9058e-04  1.4688e-04  5.2914e-03  1.0254e-03  0:00:43  198
  1803  1.0421e-03  4.8894e-04  1.4877e-04  5.3103e-03  1.0420e-03  0:00:34  197
  1804  1.0569e-03  4.8680e-04  1.5055e-04  5.3205e-03  1.0568e-03  0:01:07  196

  iter  continuity  x-velocity  y-velocity  z-velocity      energy     time/iter
  1805  1.0698e-03  4.8415e-04  1.5220e-04  5.3702e-03  1.0697e-03  0:00:53  195
  1806  1.0808e-03  4.8099e-04  1.5373e-04  5.4425e-03  1.0807e-03  0:00:42  194
  1807  1.0900e-03  4.7735e-04  1.5512e-04  5.4996e-03  1.0899e-03  0:00:34  193
  1808  1.0972e-03  4.7324e-04  1.5636e-04  5.5398e-03  1.0971e-03  0:01:05  192
  1809  1.1025e-03  4.6868e-04  1.5746e-04  5.5800e-03  1.1024e-03  0:00:52  191
  1810  1.1058e-03  4.6370e-04  1.5840e-04  5.6240e-03  1.1058e-03  0:00:41  190
  1811  1.1072e-03  4.5829e-04  1.5918e-04  5.6826e-03  1.1072e-03  0:00:33  189
  1812  1.1067e-03  4.5249e-04  1.5979e-04  5.8183e-03  1.1066e-03  0:01:04  188
  1813  1.1042e-03  4.4636e-04  1.6025e-04  6.1657e-03  1.1041e-03  0:00:51  187
  1814  1.0997e-03  4.3990e-04  1.6054e-04  6.5638e-03  1.0996e-03  0:00:40  186
  1815  1.0933e-03  4.3314e-04  1.6066e-04  6.9938e-03  1.0932e-03  0:00:32  185

  iter  continuity  x-velocity  y-velocity  z-velocity      energy     time/iter
  1816  1.0849e-03  4.2602e-04  1.6062e-04  7.2778e-03  1.0849e-03  0:01:02  184
  1817  1.0747e-03  4.1866e-04  1.6042e-04  6.9633e-03  1.0746e-03  0:00:50  183
  1818  1.0626e-03  4.1112e-04  1.6004e-04  6.5784e-03  1.0625e-03  0:00:39  182
  1819  1.0486e-03  4.0336e-04  1.5948e-04  6.2542e-03  1.0485e-03  0:00:31  181
  1820  1.0328e-03  3.9542e-04  1.5877e-04  5.9694e-03  1.0327e-03  0:01:01  180
  1821  1.0152e-03  3.8739e-04  1.5790e-04  5.7913e-03  1.0151e-03  0:00:49  179
  1822  9.9584e-04  3.7930e-04  1.5687e-04  5.7160e-03  9.9581e-04  0:00:39  178
  1823  9.7482e-04  3.7121e-04  1.5568e-04  5.7148e-03  9.7479e-04  0:00:31  177
  1824  9.5216e-04  3.6317e-04  1.5435e-04  5.7911e-03  9.5213e-04  0:01:00  176
  1825  9.2791e-04  3.5523e-04  1.5287e-04  5.9009e-03  9.2789e-04  0:00:47  175
  1826  9.0214e-04  3.4745e-04  1.5125e-04  5.9365e-03  9.0212e-04  0:00:38  174

  iter  continuity  x-velocity  y-velocity  z-velocity      energy     time/iter
  1827  8.7490e-04  3.3987e-04  1.4950e-04  5.8964e-03  8.7488e-04  0:00:30  173
  1828  8.4626e-04  3.3255e-04  1.4762e-04  5.8811e-03  8.4625e-04  0:00:58  172
  1829  8.1624e-04  3.2554e-04  1.4562e-04  5.8819e-03  8.1623e-04  0:00:46  171
  1830  7.8493e-04  3.1882e-04  1.4350e-04  5.9290e-03  7.8492e-04  0:00:37  170
  1831  7.5246e-04  3.1246e-04  1.4129e-04  5.9676e-03  7.5246e-04  0:00:29  169
  1832  7.1891e-04  3.0671e-04  1.3897e-04  5.9282e-03  7.1891e-04  0:00:57  168
  1833  6.8436e-04  3.0155e-04  1.3656e-04  5.8748e-03  6.8436e-04  0:00:45  167
  1834  6.4887e-04  2.9700e-04  1.3408e-04  5.8372e-03  6.4887e-04  0:00:36  166
  1835  6.1253e-04  2.9310e-04  1.3155e-04  5.8368e-03  6.1254e-04  0:00:29  165
  1836  5.7543e-04  2.8988e-04  1.2896e-04  5.8870e-03  5.7543e-04  0:00:56  164
  1837  5.3766e-04  2.8737e-04  1.2633e-04  5.8908e-03  5.3767e-04  0:00:44  163

  iter  continuity  x-velocity  y-velocity  z-velocity      energy     time/iter
  1838  4.9933e-04  2.8561e-04  1.2368e-04  5.8703e-03  4.9934e-04  0:00:35  162
  1839  4.6058e-04  2.8459e-04  1.2103e-04  5.8644e-03  4.6059e-04  0:01:00  161
  1840  4.2163e-04  2.8432e-04  1.1838e-04  5.8624e-03  4.2164e-04  0:00:48  160
  1841  3.8248e-04  2.8477e-04  1.1576e-04  5.8736e-03  3.8249e-04  0:00:38  159
  1842  3.4329e-04  2.8594e-04  1.1318e-04  5.8998e-03  3.4330e-04  0:00:30  158
  1843  3.0431e-04  2.8778e-04  1.1069e-04  5.9171e-03  3.0432e-04  0:00:55  157
  1844  2.6585e-04  2.9027e-04  1.0826e-04  5.9378e-03  2.6585e-04  0:00:44  156
  1845  2.2838e-04  2.9334e-04  1.0591e-04  5.9589e-03  2.2838e-04  0:00:35  155
  1846  1.9265e-04  2.9691e-04  1.0367e-04  5.9740e-03  1.9265e-04  0:00:28  154
  1847  1.5996e-04  3.0099e-04  1.0157e-04  5.9742e-03  1.5994e-04  0:00:53  153
  1848  1.3258e-04  3.0554e-04  9.9638e-05  5.9662e-03  1.3255e-04  0:00:42  152

  iter  continuity  x-velocity  y-velocity  z-velocity      energy     time/iter
  1849  1.1430e-04  3.1046e-04  9.7890e-05  5.9526e-03  1.1425e-04  0:00:33  151
  1850  1.0957e-04  3.1565e-04  9.6339e-05  5.9374e-03  1.0951e-04  0:00:26  150
  1851  1.1971e-04  3.2106e-04  9.4999e-05  5.9203e-03  1.1964e-04  0:00:51  149
  1852  1.4124e-04  3.2663e-04  9.3883e-05  5.8975e-03  1.4117e-04  0:00:40  148
  1853  1.6956e-04  3.3233e-04  9.3002e-05  5.8651e-03  1.6948e-04  0:00:32  147
  1854  2.0148e-04  3.3799e-04  9.2420e-05  5.8267e-03  2.0141e-04  0:00:26  146
  1855  2.3521e-04  3.4375e-04  9.2034e-05  5.7857e-03  2.3514e-04  0:00:49  145
  1856  2.6972e-04  3.4951e-04  9.1883e-05  5.7438e-03  2.6965e-04  0:00:39  144
  1857  3.0442e-04  3.5523e-04  9.1984e-05  5.6961e-03  3.0435e-04  0:00:31  143
  1858  3.3893e-04  3.6084e-04  9.2341e-05  5.6515e-03  3.3887e-04  0:00:25  142
  1859  3.7302e-04  3.6625e-04  9.2937e-05  5.6146e-03  3.7295e-04  0:00:48  141

  iter  continuity  x-velocity  y-velocity  z-velocity      energy     time/iter
  1860  4.0650e-04  3.7147e-04  9.3753e-05  5.5940e-03  4.0644e-04  0:00:38  140
  1861  4.3925e-04  3.7650e-04  9.4773e-05  5.5856e-03  4.3919e-04  0:00:30  139
  1862  4.7117e-04  3.8132e-04  9.5979e-05  5.5726e-03  4.7111e-04  0:00:24  138
  1863  5.0215e-04  3.8588e-04  9.7353e-05  5.5468e-03  5.0209e-04  0:00:46  137
  1864  5.3213e-04  3.9016e-04  9.8876e-05  5.5099e-03  5.3206e-04  0:00:37  136
  1865  5.6103e-04  3.9413e-04  1.0053e-04  5.4694e-03  5.6097e-04  0:00:29  135
  1866  5.8883e-04  3.9778e-04  1.0228e-04  5.4317e-03  5.8877e-04  0:00:23  134
  1867  6.1545e-04  4.0110e-04  1.0413e-04  5.4021e-03  6.1539e-04  0:00:45  133
  1868  6.4085e-04  4.0407e-04  1.0603e-04  5.3834e-03  6.4079e-04  0:00:36  132
  1869  6.6498e-04  4.0664e-04  1.0799e-04  5.3798e-03  6.6492e-04  0:00:28  131
  1870  6.8781e-04  4.0885e-04  1.0997e-04  5.3917e-03  6.8774e-04  0:00:23  130

  iter  continuity  x-velocity  y-velocity  z-velocity      energy     time/iter
  1871  7.0931e-04  4.1077e-04  1.1195e-04  5.4657e-03  7.0925e-04  0:00:44  129
  1872  7.2947e-04  4.1234e-04  1.1394e-04  5.5444e-03  7.2941e-04  0:00:35  128
  1873  7.4825e-04  4.1354e-04  1.1590e-04  5.5670e-03  7.4819e-04  0:00:28  127
  1874  7.6568e-04  4.1425e-04  1.1783e-04  5.5391e-03  7.6562e-04  0:00:47  126
  1875  7.8172e-04  4.1441e-04  1.1971e-04  5.4984e-03  7.8166e-04  0:00:37  125
  1876  7.9633e-04  4.1404e-04  1.2152e-04  5.4413e-03  7.9627e-04  0:00:30  124
  1877  8.0951e-04  4.1316e-04  1.2326e-04  5.3728e-03  8.0945e-04  0:00:24  123
  1878  8.2124e-04  4.1181e-04  1.2493e-04  5.3050e-03  8.2118e-04  0:00:43  122
  1879  8.3153e-04  4.1002e-04  1.2650e-04  5.2476e-03  8.3147e-04  0:00:34  121
  1880  8.4037e-04  4.0784e-04  1.2797e-04  5.2113e-03  8.4030e-04  0:00:27  120
  1881  8.4775e-04  4.0529e-04  1.2933e-04  5.1947e-03  8.4769e-04  0:00:22  119

  iter  continuity  x-velocity  y-velocity  z-velocity      energy     time/iter
  1882  8.5369e-04  4.0239e-04  1.3057e-04  5.1919e-03  8.5363e-04  0:00:41  118
  1883  8.5818e-04  3.9906e-04  1.3173e-04  5.1944e-03  8.5812e-04  0:00:32  117
  1884  8.6123e-04  3.9548e-04  1.3274e-04  5.1849e-03  8.6118e-04  0:00:26  116
  1885  8.6286e-04  3.9163e-04  1.3360e-04  5.1577e-03  8.6280e-04  0:00:20  115
  1886  8.6305e-04  3.8749e-04  1.3432e-04  5.1179e-03  8.6300e-04  0:00:39  114
  1887  8.6184e-04  3.8306e-04  1.3492e-04  5.0724e-03  8.6179e-04  0:00:31  113
  1888  8.5924e-04  3.7836e-04  1.3538e-04  5.0269e-03  8.5918e-04  0:00:24  112
  1889  8.5525e-04  3.7337e-04  1.3571e-04  4.9831e-03  8.5520e-04  0:00:19  111
  1890  8.4990e-04  3.6815e-04  1.3590e-04  4.9369e-03  8.4985e-04  0:00:37  110
  1891  8.4321e-04  3.6268e-04  1.3595e-04  4.8882e-03  8.4316e-04  0:00:30  109
  1892  8.3520e-04  3.5702e-04  1.3585e-04  4.8519e-03  8.3515e-04  0:00:23  108

  iter  continuity  x-velocity  y-velocity  z-velocity      energy     time/iter
  1893  8.2590e-04  3.5122e-04  1.3561e-04  4.8311e-03  8.2585e-04  0:00:19  107
  1894  8.1532e-04  3.4530e-04  1.3523e-04  4.8364e-03  8.1527e-04  0:00:36  106
  1895  8.0350e-04  3.3929e-04  1.3472e-04  4.8706e-03  8.0345e-04  0:00:28  105
  1896  7.9046e-04  3.3323e-04  1.3407e-04  4.9107e-03  7.9041e-04  0:00:23  104
  1897  7.7623e-04  3.2713e-04  1.3328e-04  4.9688e-03  7.7618e-04  0:00:18  103
  1898  7.6084e-04  3.2104e-04  1.3236e-04  5.0682e-03  7.6080e-04  0:00:35  102
  1899  7.4433e-04  3.1500e-04  1.3132e-04  5.2280e-03  7.4429e-04  0:00:27  101
  1900  7.2673e-04  3.0904e-04  1.3015e-04  5.4094e-03  7.2669e-04  0:00:22  100
  1901  7.0807e-04  3.0319e-04  1.2886e-04  5.4059e-03  7.0803e-04  0:00:17   99
  1902  6.8839e-04  2.9753e-04  1.2745e-04  5.6315e-03  6.8836e-04  0:00:33   98
  1903  6.6776e-04  2.9213e-04  1.2594e-04  5.9218e-03  6.6772e-04  0:00:26   97

  iter  continuity  x-velocity  y-velocity  z-velocity      energy     time/iter
  1904  6.4618e-04  2.8700e-04  1.2432e-04  6.7394e-03  6.4615e-04  0:00:21   96
  1905  6.2369e-04  2.8215e-04  1.2260e-04  7.4018e-03  6.2366e-04  0:00:16   95
  1906  6.0034e-04  2.7761e-04  1.2079e-04  7.5725e-03  6.0031e-04  0:00:32   94
  1907  5.7617e-04  2.7343e-04  1.1889e-04  7.7249e-03  5.7614e-04  0:00:25   93
  1908  5.5123e-04  2.6965e-04  1.1692e-04  7.9856e-03  5.5120e-04  0:00:20   92
  1909  5.2556e-04  2.6634e-04  1.1488e-04  8.2659e-03  5.2554e-04  0:00:34   91
  1910  4.9922e-04  2.6348e-04  1.1278e-04  8.2814e-03  4.9921e-04  0:00:27   90
  1911  4.7226e-04  2.6107e-04  1.1064e-04  7.8145e-03  4.7225e-04  0:00:21   89
  1912  4.4473e-04  2.5913e-04  1.0845e-04  7.0895e-03  4.4471e-04  0:00:17   88
  1913  4.1669e-04  2.5769e-04  1.0624e-04  6.2950e-03  4.1668e-04  0:00:31   87
  1914  3.8822e-04  2.5676e-04  1.0400e-04  5.6085e-03  3.8821e-04  0:00:24   86

  iter  continuity  x-velocity  y-velocity  z-velocity      energy     time/iter
  1915  3.5936e-04  2.5638e-04  1.0176e-04  5.1788e-03  3.5935e-04  0:00:19   85
  1916  3.3019e-04  2.5655e-04  9.9532e-05  5.0314e-03  3.3018e-04  0:00:15   84
  1917  3.0081e-04  2.5727e-04  9.7320e-05  5.0911e-03  3.0080e-04  0:00:29   83
  1918  2.7134e-04  2.5851e-04  9.5139e-05  5.2537e-03  2.7133e-04  0:00:23   82
  1919  2.4193e-04  2.6026e-04  9.3007e-05  5.4296e-03  2.4192e-04  0:00:18   81
  1920  2.1280e-04  2.6248e-04  9.0934e-05  5.5659e-03  2.1279e-04  0:00:14   80
  1921  1.8427e-04  2.6512e-04  8.8940e-05  5.6357e-03  1.8426e-04  0:00:27   79
  1922  1.5682e-04  2.6814e-04  8.7041e-05  5.6321e-03  1.5681e-04  0:00:21   78
  1923  1.3133e-04  2.7153e-04  8.5251e-05  5.5559e-03  1.3131e-04  0:00:17   77
  1924  1.0929e-04  2.7524e-04  8.3584e-05  5.4239e-03  1.0926e-04  0:00:13   76
  1925  9.3313e-05  2.7924e-04  8.2056e-05  5.2613e-03  9.3262e-05  0:00:25   75

  iter  continuity  x-velocity  y-velocity  z-velocity      energy     time/iter
  1926  8.6863e-05  2.8347e-04  8.0683e-05  5.1169e-03  8.6795e-05  0:00:20   74
  1927  9.1945e-05  2.8790e-04  7.9470e-05  5.0190e-03  9.1867e-05  0:00:16   73
  1928  1.0685e-04  2.9248e-04  7.8436e-05  4.9507e-03  1.0676e-04  0:00:13   72
  1929  1.2808e-04  2.9720e-04  7.7601e-05  4.9061e-03  1.2800e-04  0:00:24   71
  1930  1.5288e-04  3.0200e-04  7.6957e-05  4.8771e-03  1.5281e-04  0:00:19   70
  1931  1.7963e-04  3.0679e-04  7.6509e-05  4.8544e-03  1.7956e-04  0:00:15   69
  1932  2.0741e-04  3.1157e-04  7.6263e-05  4.8329e-03  2.0734e-04  0:00:12   68
  1933  2.3569e-04  3.1635e-04  7.6222e-05  4.8107e-03  2.3562e-04  0:00:23   67
  1934  2.6414e-04  3.2107e-04  7.6384e-05  4.7893e-03  2.6406e-04  0:00:18   66
  1935  2.9253e-04  3.2570e-04  7.6742e-05  4.7643e-03  2.9245e-04  0:00:14   65
  1936  3.2070e-04  3.3020e-04  7.7285e-05  4.7374e-03  3.2063e-04  0:00:11   64

  iter  continuity  x-velocity  y-velocity  z-velocity      energy     time/iter
  1937  3.4854e-04  3.3455e-04  7.8004e-05  4.7057e-03  3.4847e-04  0:00:21   63
  1938  3.7594e-04  3.3872e-04  7.8885e-05  4.6727e-03  3.7587e-04  0:00:17   62
  1939  4.0282e-04  3.4268e-04  7.9917e-05  4.6434e-03  4.0275e-04  0:00:13   61
  1940  4.2911e-04  3.4639e-04  8.1083e-05  4.6211e-03  4.2904e-04  0:00:10   60
  1941  4.5475e-04  3.4986e-04  8.2360e-05  4.6171e-03  4.5468e-04  0:00:20   59
  1942  4.7968e-04  3.5310e-04  8.3738e-05  4.6528e-03  4.7961e-04  0:00:16   58
  1943  5.0384e-04  3.5609e-04  8.5203e-05  4.7140e-03  5.0377e-04  0:00:12   57
  1944  5.2719e-04  3.5880e-04  8.6739e-05  4.7861e-03  5.2712e-04  0:00:10   56
  1945  5.4968e-04  3.6121e-04  8.8328e-05  4.9111e-03  5.4961e-04  0:00:19   55
  1946  5.7126e-04  3.6334e-04  8.9941e-05  5.3468e-03  5.7119e-04  0:00:15   54
  1947  5.9189e-04  3.6515e-04  9.1580e-05  6.6015e-03  5.9181e-04  0:00:11   53

  iter  continuity  x-velocity  y-velocity  z-velocity      energy     time/iter
  1948  6.1159e-04  3.6664e-04  9.3228e-05  8.2180e-03  6.1152e-04  0:00:09   52
  1949  6.3025e-04  3.6790e-04  9.4817e-05  9.7355e-03  6.3018e-04  0:00:17   51
  1950  6.4781e-04  3.6883e-04  9.6423e-05  1.1200e-02  6.4774e-04  0:00:14   50
  1951  6.6425e-04  3.6933e-04  9.8043e-05  1.2628e-02  6.6418e-04  0:00:11   49
  1952  6.7954e-04  3.6943e-04  9.9625e-05  1.2742e-02  6.7947e-04  0:00:08   48
  1953  6.9365e-04  3.6915e-04  1.0115e-04  1.1925e-02  6.9358e-04  0:00:16   47
  1954  7.0658e-04  3.6858e-04  1.0259e-04  1.0962e-02  7.0651e-04  0:00:12   46
  1955  7.1830e-04  3.6779e-04  1.0396e-04  9.4122e-03  7.1823e-04  0:00:10   45
  1956  7.2878e-04  3.6649e-04  1.0524e-04  9.0066e-03  7.2872e-04  0:00:08   44
  1957  7.3801e-04  3.6493e-04  1.0647e-04  1.0377e-02  7.3795e-04  0:00:15   43
  1958  7.4596e-04  3.6302e-04  1.0757e-04  1.1362e-02  7.4590e-04  0:00:11   42

  iter  continuity  x-velocity  y-velocity  z-velocity      energy     time/iter
  1959  7.5262e-04  3.6089e-04  1.0860e-04  8.9775e-03  7.5256e-04  0:00:09   41
  1960  7.5797e-04  3.5824e-04  1.0952e-04  9.3849e-03  7.5791e-04  0:00:07   40
  1961  7.6200e-04  3.5535e-04  1.1034e-04  8.2837e-03  7.6194e-04  0:00:13   39
  1962  7.6470e-04  3.5221e-04  1.1106e-04  7.8779e-03  7.6465e-04  0:00:10   38
  1963  7.6608e-04  3.4881e-04  1.1166e-04  7.4754e-03  7.6603e-04  0:00:08   37
  1964  7.6612e-04  3.4518e-04  1.1216e-04  7.2956e-03  7.6608e-04  0:00:13   36
  1965  7.6484e-04  3.4129e-04  1.1254e-04  6.8311e-03  7.6479e-04  0:00:10   35
  1966  7.6223e-04  3.3709e-04  1.1280e-04  6.5421e-03  7.6218e-04  0:00:08   34
  1967  7.5829e-04  3.3274e-04  1.1295e-04  6.3310e-03  7.5825e-04  0:00:06   33
  1968  7.5305e-04  3.2826e-04  1.1298e-04  6.1131e-03  7.5301e-04  0:00:11   32
  1969  7.4652e-04  3.2363e-04  1.1289e-04  5.9512e-03  7.4648e-04  0:00:09   31

  iter  continuity  x-velocity  y-velocity  z-velocity      energy     time/iter
  1970  7.3869e-04  3.1885e-04  1.1268e-04  5.7976e-03  7.3866e-04  0:00:07   30
  1971  7.2961e-04  3.1396e-04  1.1235e-04  5.6690e-03  7.2958e-04  0:00:05   29
  1972  7.1928e-04  3.0900e-04  1.1191e-04  5.5765e-03  7.1925e-04  0:00:10   28
  1973  7.0774e-04  3.0399e-04  1.1135e-04  5.5120e-03  7.0771e-04  0:00:07   27
  1974  6.9500e-04  2.9896e-04  1.1069e-04  5.4821e-03  6.9497e-04  0:00:06   26
  1975  6.8110e-04  2.9396e-04  1.0991e-04  5.5060e-03  6.8107e-04  0:00:09   25
  1976  6.6606e-04  2.8903e-04  1.0902e-04  5.5423e-03  6.6604e-04  0:00:07   24
  1977  6.4993e-04  2.8411e-04  1.0802e-04  5.5863e-03  6.4991e-04  0:00:06   23
  1978  6.3273e-04  2.7899e-04  1.0694e-04  5.6361e-03  6.3272e-04  0:00:04   22
  1979  6.1452e-04  2.7409e-04  1.0576e-04  5.6675e-03  6.1451e-04  0:00:07   21
  1980  5.9533e-04  2.6947e-04  1.0447e-04  5.6818e-03  5.9531e-04  0:00:06   20

  iter  continuity  x-velocity  y-velocity  z-velocity      energy     time/iter
  1981  5.7520e-04  2.6495e-04  1.0313e-04  5.6848e-03  5.7519e-04  0:00:04   19
  1982  5.5419e-04  2.6073e-04  1.0173e-04  5.6814e-03  5.5418e-04  0:00:03   18
  1983  5.3232e-04  2.5705e-04  1.0014e-04  5.6562e-03  5.3231e-04  0:00:06   17
  1984  5.0966e-04  2.5377e-04  9.8533e-05  5.6259e-03  5.0966e-04  0:00:04   16
  1985  4.8630e-04  2.5081e-04  9.6871e-05  5.6104e-03  4.8630e-04  0:00:03   15
  1986  4.6230e-04  2.4813e-04  9.5157e-05  5.6063e-03  4.6230e-04  0:00:02   14
  1987  4.3765e-04  2.4578e-04  9.3398e-05  5.6200e-03  4.3765e-04  0:00:04   13
  1988  4.1241e-04  2.4380e-04  9.1603e-05  5.6524e-03  4.1241e-04  0:00:03   12
  1989  3.8664e-04  2.4221e-04  8.9778e-05  5.6668e-03  3.8664e-04  0:00:02   11
  1990  3.6042e-04  2.4106e-04  8.7933e-05  5.6740e-03  3.6042e-04  0:00:02   10
  1991  3.3383e-04  2.4033e-04  8.6076e-05  5.6847e-03  3.3384e-04  0:00:03    9

  iter  continuity  x-velocity  y-velocity  z-velocity      energy     time/iter
  1992  3.0697e-04  2.4001e-04  8.4219e-05  5.7032e-03  3.0697e-04  0:00:02    8
  1993  2.7991e-04  2.4009e-04  8.2374e-05  5.7299e-03  2.7991e-04  0:00:02    7
  1994  2.5278e-04  2.4057e-04  8.0553e-05  5.7616e-03  2.5278e-04  0:00:01    6
  1995  2.2570e-04  2.4144e-04  7.8767e-05  5.7963e-03  2.2570e-04  0:00:02    5
  1996  1.9885e-04  2.4263e-04  7.7016e-05  5.8340e-03  1.9885e-04  0:00:01    4
  1997  1.7251e-04  2.4426e-04  7.5339e-05  5.8734e-03  1.7250e-04  0:00:01    3
  1998  1.4705e-04  2.4624e-04  7.3737e-05  5.9045e-03  1.4705e-04  0:00:00    2
  1999  1.2316e-04  2.4850e-04  7.2226e-05  5.9264e-03  1.2314e-04  0:00:00    1
  2000  1.0199e-04  2.5102e-04  7.0819e-05  5.9450e-03  1.0196e-04  0:00:00    0

> 
adjoint/                parallel/               server/
define/                 parametric-study/       solve/
display/                plot/                   surface/
exit                    preferences/            turbo-workflow/
file/                   print-license-usage     views/
mesh/                   report/

> /file/write-case-data project1
Fast-loading "C:\PROGRA~1\ANSYSI~1\v231\fluent\fluent23.1.0\\addons\afd\lib\hdfio.bin"
Done.

Writing to Engs-30669:"C:\Users\kebl7595\Desktop\CFD\Runs\Actual Data\0 degree fine mesh\project1.cas.h5" in NODE0 mode and compression level 1 ...
       35100 cells,     1 zone  ...
      117798 faces,     8 zones ...
       47864 nodes,     1 zone  ...
  Done.
Done.

Writing to Engs-30669:"C:\Users\kebl7595\Desktop\CFD\Runs\Actual Data\0 degree fine mesh\project1.dat.h5" in NODE0 mode and compression level 1 ...
  Writing results.
Done.

> /file/export/ascii "./surface.dat" wing te () no pressure mach-number quit no

Writing "./surface.dat"...

Writing information to ascii file ...
Done.


> /plot/plot y "data.dat" no n n pressure-coefficient no n x-coordinate wing ()

> 
adjoint/                parallel/               server/
define/                 parametric-study/       solve/
display/                plot/                   surface/
exit                    preferences/            turbo-workflow/
file/                   print-license-usage     views/
mesh/                   report/

> /exit

Posting ANSYS Product Improvement Program performance data 
Done.
Auto-Transcript Stop Time:  14:02:41, 20 May 2024 GMT Daylight Time 
Total Transcript Time: 7 Minute 20 Second.
