Auto-Transcript Start Time:  14:24:56, 20 May 2024 GMT Daylight Time 
Current Directory: "C:\Users\kebl7595\Desktop\CFD\Runs\Actual Data\0 degree fine mesh"

              Welcome to ANSYS Fluent 2023 R1

              Copyright 1987-2023 ANSYS, Inc. All Rights Reserved.
              Unauthorized use, distribution or duplication is prohibited.
              This product is subject to U.S. laws governing export and re-export.
              For full Legal Notice, see documentation.

Build Time: Nov 28 2022 09:52:02 EST  Build Id: 10208  
 
Connected License Server List:	1055@ansyslic.eng.ox.ac.uk

*********************************************
Info: Your license enables 4-way parallel execution.
For faster simulations, please start the application with the appropriate parallel options.
*********************************************


     --------------------------------------------------------------
     This is an academic version of ANSYS FLUENT. Usage of this product
     license is limited to the terms and conditions specified in your ANSYS
     license form, additional terms section.
     --------------------------------------------------------------
Host spawning Node 0 on machine "Engs-30669" (win64).

------------------------------------------------------------------------------------
ID    Hostname    Core  O.S.         PID    Vendor                                 
------------------------------------------------------------------------------------
n0    Engs-30669  1/32  Windows-x64  37348  13th Gen Intel(R) Core(TM) i9-13900    
host  Engs-30669        Windows-x64  5020   13th Gen Intel(R) Core(TM) i9-13900    

MPI Option Selected: intel
------------------------------------------------------------------------------------

Cleanup script file is C:\\Users\\kebl7595\\Desktop\\CFD\\Runs\\Actual Data\\0 degree fine mesh\\cleanup-fluent-Engs-30669-5020.bat
QA Service Message :
QA Services Agreement Enabled. This application is included in the scope of an ANSYS QA Services Agreement.
Posting ANSYS Product Improvement Program startup data
Done.

Reading journal file C:/Users/kebl7595/Desktop/CFD/Runs/Actual Data/0 degree fine mesh/project1.jou...

> /file/set-batch-options no no no 

> 
define/                 parametric-study/       solve/
display/                plot/                   surface/
exit                    preferences/            switch-to-meshing-mode
file/                   print-license-usage     turbo-workflow/
mesh/                   report/                 views/
parallel/               server/

> /file/import/cgns/mesh  "./project1.cgns"
Engs-30669 has other FLUENT parallel processes running.                       Process affinity not being set.

Importing "./project1.cgns"

Opening library "C:\\PROGRA~1\\ANSYSI~1\\v231\\fluent\\fluent23.1.0\\vki\\win64\\devtools4.4.6.dll"... done.

Read    47864 nodes
   35100 hexahedral cells, zone  1
   24990 quadrilateral wall faces, zone  2.
   92448 quadrilateral interior faces, zone  3.
     354 quadrilateral interface faces, zone  4.
       6 quadrilateral wall faces, zone  5.

Building...
     mesh
     materials,
     interface,
     domains,
     zones,
	default_exterior-1
	interface-default_subface
	default_interior-1
	default_subface
	default
     parallel,
The automatic selection for flux type has changed to Rhie-Chow: momentum based.

Done.


> 
adjoint/                parallel/               server/
define/                 parametric-study/       solve/
display/                plot/                   surface/
exit                    preferences/            turbo-workflow/
file/                   print-license-usage     views/
mesh/                   report/

> /define/models/solver/density-based-implicit yes

> 
adjoint/                parallel/               server/
define/                 parametric-study/       solve/
display/                plot/                   surface/
exit                    preferences/            turbo-workflow/
file/                   print-license-usage     views/
mesh/                   report/

> /define/models/energy? yes yes invalid command [yes]
yes

> /define/models/viscous/inviscid yes

> 
adjoint/                parallel/               server/
define/                 parametric-study/       solve/
display/                plot/                   surface/
exit                    preferences/            turbo-workflow/
file/                   print-license-usage     views/
mesh/                   report/

> /define/materials/change-create air air air is a fluid
yes 
Density
ideal-gas no data required.

no no no no 

> 
adjoint/                parallel/               server/
define/                 parametric-study/       solve/
display/                plot/                   surface/
exit                    preferences/            turbo-workflow/
file/                   print-license-usage     views/
mesh/                   report/

> /mesh/modify-zones/sep-face-zone-angle 2 90 yes

 11700 faces in contiguous region 0
 588 faces in contiguous region 1
 702 faces in contiguous region 2
 11700 faces in contiguous region 3
 300 faces in contiguous region 4
 Separates zone 2 into 5 zone(s).
Updating new zone information...
   created new zone default_subface:010 from default_subface
   created new zone default_subface:009 from default_subface
   created new zone default_subface:008 from default_subface
   created new zone default_subface:007 from default_subface
done.

> 
adjoint/                parallel/               server/
define/                 parametric-study/       solve/
display/                plot/                   surface/
exit                    preferences/            turbo-workflow/
file/                   print-license-usage     views/
mesh/                   report/

> /define/boundary-conditions/zone-name  5   te

> /define/boundary-conditions/zone-name  7 wing

> /define/boundary-conditions/zone-name  2 sym1

> /define/boundary-conditions/zone-name  9 sym2

> 
adjoint/                parallel/               server/
define/                 parametric-study/       solve/
display/                plot/                   surface/
exit                    preferences/            turbo-workflow/
file/                   print-license-usage     views/
mesh/                   report/

> /define/boundary-conditions/zone-name  8 far1

> /define/boundary-conditions/zone-name 10 far2

> 
adjoint/                parallel/               server/
define/                 parametric-study/       solve/
display/                plot/                   surface/
exit                    preferences/            turbo-workflow/
file/                   print-license-usage     views/
mesh/                   report/

> /define/boundary-conditions/zone-type  8 pressure-far-field

> /define/boundary-conditions/zone-type 10 pressure-far-field

> /define/boundary-conditions/zone-type  2 symmetry

> /define/boundary-conditions/zone-type  9 symmetry

> 
adjoint/                parallel/               server/
define/                 parametric-study/       solve/
display/                plot/                   surface/
exit                    preferences/            turbo-workflow/
file/                   print-license-usage     views/
mesh/                   report/

> /define/boundary-conditions/pressure-far-field (far2 far1)
far1 no 0 no 0.1 no 300 yes no 0.984808 no 0.173648 no 0

> /define/boundary-conditions/pressure-far-field (far2 far1)
far2 no 0 no 0.1 no 300 yes no 0.984808 no 0.173648 no 0

> 
adjoint/                parallel/               server/
define/                 parametric-study/       solve/
display/                plot/                   surface/
exit                    preferences/            turbo-workflow/
file/                   print-license-usage     views/
mesh/                   report/

> /solve/initialize/compute-defaults/pressure-far-field (far2 far1)
far1

> /solve/initialize/initialize-flow

> 
adjoint/                parallel/               server/
define/                 parametric-study/       solve/
display/                plot/                   surface/
exit                    preferences/            turbo-workflow/
file/                   print-license-usage     views/
mesh/                   report/

> /solve/monitors/residual/convergence-criteria 1.e-9 1.e-9 1.e-9 1.e-9 1.e-9

> /solve/iterate 2000

  iter  continuity  x-velocity  y-velocity  z-velocity      energy     time/iter
     1  1.0000e+00  1.0000e+00  1.0000e+00  0.0000e+00  1.0000e+00  0:00:00 1999
     2  5.1979e-01  5.7346e-01  3.1097e-01  1.0000e+00  5.2072e-01  0:33:18 1998
     3  2.7327e-01  2.2029e-01  2.3557e-01  4.1676e-01  2.7370e-01  0:26:38 1997
     4  1.7915e-01  1.5749e-01  1.5886e-01  5.6000e-01  1.7939e-01  0:21:17 1996
     5  1.3457e-01  1.1698e-01  1.0851e-01  7.2958e-01  1.3476e-01  0:23:40 1995
     6  1.0923e-01  7.9688e-02  7.8547e-02  6.2679e-01  1.0942e-01  0:18:56 1994
     7  8.5085e-02  6.0866e-02  5.8869e-02  4.4609e-01  8.5223e-02  0:15:08 1993
     8  6.8873e-02  4.8021e-02  4.5484e-02  4.1322e-01  6.8997e-02  0:12:06 1992
     9  5.7623e-02  3.9029e-02  3.6092e-02  3.5387e-01  5.7738e-02  0:16:19 1991
    10  4.9301e-02  3.2771e-02  2.9306e-02  3.1377e-01  4.9404e-02  0:13:03 1990
    11  4.3162e-02  2.8242e-02  2.4267e-02  2.9017e-01  4.3258e-02  0:10:26 1989

  iter  continuity  x-velocity  y-velocity  z-velocity      energy     time/iter
    12  3.8682e-02  2.4824e-02  2.0454e-02  2.7745e-01  3.8778e-02  0:14:58 1988
    13  3.5398e-02  2.2165e-02  1.7528e-02  2.7141e-01  3.5500e-02  0:11:58 1987
    14  3.2988e-02  2.0088e-02  1.5266e-02  2.6872e-01  3.3099e-02  0:09:34 1986
    15  3.1193e-02  1.8592e-02  1.3496e-02  2.6787e-01  3.1316e-02  0:07:39 1985
    16  2.9810e-02  1.7529e-02  1.2080e-02  2.6819e-01  2.9945e-02  0:12:44 1984
    17  2.8727e-02  1.6743e-02  1.0976e-02  2.6923e-01  2.8873e-02  0:10:11 1983
    18  2.7799e-02  1.6289e-02  1.0104e-02  2.7090e-01  2.7954e-02  0:08:08 1982
    19  2.6962e-02  1.5972e-02  9.4193e-03  2.7329e-01  2.7125e-02  0:06:31 1981
    20  2.6152e-02  1.5842e-02  8.8983e-03  2.7668e-01  2.6319e-02  0:05:12 1980
    21  2.5279e-02  1.5764e-02  8.4912e-03  2.8083e-01  2.5446e-02  0:04:10 1979
    22  2.4337e-02  1.5790e-02  8.1668e-03  2.8605e-01  2.4500e-02  0:09:55 1978

  iter  continuity  x-velocity  y-velocity  z-velocity      energy     time/iter
    23  2.3337e-02  1.5814e-02  7.9115e-03  2.9265e-01  2.3493e-02  0:07:56 1977
    24  2.2296e-02  1.5868e-02  7.7138e-03  3.0064e-01  2.2441e-02  0:06:21 1976
    25  2.1196e-02  1.5930e-02  7.5494e-03  3.0910e-01  2.1327e-02  0:05:04 1975
    26  2.0082e-02  1.5987e-02  7.4069e-03  3.1785e-01  2.0197e-02  0:04:03 1974
    27  1.8989e-02  1.6049e-02  7.2845e-03  3.2626e-01  1.9086e-02  0:03:15 1973
    28  1.7976e-02  1.6094e-02  7.1728e-03  3.3373e-01  1.8056e-02  0:02:36 1972
    29  1.7076e-02  1.6136e-02  7.0847e-03  3.3954e-01  1.7139e-02  0:08:39 1971
    30  1.6356e-02  1.6187e-02  7.0150e-03  3.4311e-01  1.6406e-02  0:06:55 1970
    31  1.5805e-02  1.6247e-02  6.9646e-03  3.4372e-01  1.5844e-02  0:05:32 1969
    32  1.5440e-02  1.6325e-02  6.9307e-03  3.4157e-01  1.5471e-02  0:04:25 1968
    33  1.5255e-02  1.6429e-02  6.9101e-03  3.3570e-01  1.5283e-02  0:03:32 1967

  iter  continuity  x-velocity  y-velocity  z-velocity      energy     time/iter
    34  1.5253e-02  1.6558e-02  6.9005e-03  3.2801e-01  1.5279e-02  0:02:50 1966
    35  1.5419e-02  1.6708e-02  6.9017e-03  3.1767e-01  1.5447e-02  0:02:16 1965
    36  1.5744e-02  1.6888e-02  6.9098e-03  3.0645e-01  1.5774e-02  0:01:48 1964
    37  1.6205e-02  1.7090e-02  6.9238e-03  2.9522e-01  1.6238e-02  0:07:59 1963
    38  1.6777e-02  1.7319e-02  6.9414e-03  2.8504e-01  1.6814e-02  0:06:23 1962
    39  1.7442e-02  1.7572e-02  6.9628e-03  2.7732e-01  1.7482e-02  0:05:06 1961
    40  1.8165e-02  1.7845e-02  6.9897e-03  2.7287e-01  1.8209e-02  0:04:05 1960
    41  1.8919e-02  1.8136e-02  7.0233e-03  2.7177e-01  1.8967e-02  0:03:16 1959
    42  1.9693e-02  1.8440e-02  7.0661e-03  2.7583e-01  1.9745e-02  0:02:37 1958
    43  2.0489e-02  1.8758e-02  7.1207e-03  2.8400e-01  2.0547e-02  0:02:05 1957
    44  2.1280e-02  1.9082e-02  7.1909e-03  2.8640e-01  2.1342e-02  0:08:11 1956

  iter  continuity  x-velocity  y-velocity  z-velocity      energy     time/iter
    45  2.2042e-02  1.9410e-02  7.2795e-03  2.9639e-01  2.2110e-02  0:06:33 1955
    46  2.2783e-02  1.9739e-02  7.3884e-03  2.9901e-01  2.2856e-02  0:05:14 1954
    47  2.3534e-02  2.0071e-02  7.5230e-03  3.0701e-01  2.3613e-02  0:04:11 1953
    48  2.4283e-02  2.0405e-02  7.6854e-03  3.1287e-01  2.4368e-02  0:03:21 1952
    49  2.5037e-02  2.0741e-02  7.8784e-03  3.2135e-01  2.5128e-02  0:02:41 1951
    50  2.5801e-02  2.1079e-02  8.1028e-03  3.2568e-01  2.5900e-02  0:02:08 1950
    51  2.6583e-02  2.1423e-02  8.3602e-03  3.2581e-01  2.6689e-02  0:08:12 1949
    52  2.7388e-02  2.1774e-02  8.6514e-03  3.2473e-01  2.7501e-02  0:06:34 1948
    53  2.8210e-02  2.2130e-02  8.9778e-03  3.2173e-01  2.8331e-02  0:05:15 1947
    54  2.9051e-02  2.2495e-02  9.3390e-03  3.1658e-01  2.9180e-02  0:04:12 1946
    55  2.9914e-02  2.2867e-02  9.7344e-03  3.1038e-01  3.0051e-02  0:03:21 1945

  iter  continuity  x-velocity  y-velocity  z-velocity      energy     time/iter
    56  3.0805e-02  2.3248e-02  1.0163e-02  3.0393e-01  3.0951e-02  0:09:10 1944
    57  3.1732e-02  2.3634e-02  1.0624e-02  2.9807e-01  3.1886e-02  0:07:20 1943
    58  3.2695e-02  2.4025e-02  1.1116e-02  2.9333e-01  3.2857e-02  0:05:51 1942
    59  3.3696e-02  2.4421e-02  1.1638e-02  2.9126e-01  3.3867e-02  0:04:41 1941
    60  3.4730e-02  2.4816e-02  1.2192e-02  2.9409e-01  3.4912e-02  0:10:13 1940
    61  3.5790e-02  2.5207e-02  1.2773e-02  2.9416e-01  3.5982e-02  0:08:10 1939
    62  3.6872e-02  2.5592e-02  1.3380e-02  2.9497e-01  3.7076e-02  0:06:32 1938
    63  3.7964e-02  2.5968e-02  1.4010e-02  2.9740e-01  3.8180e-02  0:05:13 1937
    64  3.9058e-02  2.6331e-02  1.4657e-02  3.0287e-01  3.9286e-02  0:10:38 1936
    65  4.0145e-02  2.6679e-02  1.5320e-02  3.0846e-01  4.0387e-02  0:08:30 1935
    66  4.1227e-02  2.7009e-02  1.5995e-02  3.1425e-01  4.1482e-02  0:06:48 1934

  iter  continuity  x-velocity  y-velocity  z-velocity      energy     time/iter
    67  4.2309e-02  2.7319e-02  1.6683e-02  3.1999e-01  4.2579e-02  0:05:26 1933
    68  4.3352e-02  2.7612e-02  1.7380e-02  3.2536e-01  4.3638e-02  0:10:47 1932
    69  4.4319e-02  2.7882e-02  1.8080e-02  3.2959e-01  4.4620e-02  0:08:37 1931
    70  4.5193e-02  2.8121e-02  1.8769e-02  3.3288e-01  4.5508e-02  0:06:54 1930
    71  4.5953e-02  2.8331e-02  1.9434e-02  3.3506e-01  4.6280e-02  0:05:31 1929
    72  4.6643e-02  2.8496e-02  2.0072e-02  3.3695e-01  4.6982e-02  0:10:50 1928
    73  4.7250e-02  2.8615e-02  2.0671e-02  3.3920e-01  4.7602e-02  0:08:40 1927
    74  4.7793e-02  2.8696e-02  2.1229e-02  3.4134e-01  4.8156e-02  0:06:56 1926
    75  4.8175e-02  2.8738e-02  2.1740e-02  3.4272e-01  4.8547e-02  0:05:32 1925
    76  4.8373e-02  2.8727e-02  2.2179e-02  3.4326e-01  4.8752e-02  0:10:51 1924
    77  4.8412e-02  2.8662e-02  2.2531e-02  3.4320e-01  4.8795e-02  0:08:40 1923

  iter  continuity  x-velocity  y-velocity  z-velocity      energy     time/iter
    78  4.8335e-02  2.8541e-02  2.2792e-02  3.4293e-01  4.8720e-02  0:06:56 1922
    79  4.8133e-02  2.8366e-02  2.2951e-02  3.4248e-01  4.8520e-02  0:05:33 1921
    80  4.7704e-02  2.8133e-02  2.3015e-02  3.4111e-01  4.8087e-02  0:10:50 1920
    81  4.7104e-02  2.7826e-02  2.2954e-02  3.3934e-01  4.7482e-02  0:08:40 1919
    82  4.6427e-02  2.7464e-02  2.2769e-02  3.3782e-01  4.6798e-02  0:06:56 1918
    83  4.5614e-02  2.7039e-02  2.2469e-02  3.3618e-01  4.5978e-02  0:05:32 1917
    84  4.4595e-02  2.6550e-02  2.2053e-02  3.3393e-01  4.4948e-02  0:10:49 1916
    85  4.3461e-02  2.6022e-02  2.1510e-02  3.3164e-01  4.3802e-02  0:08:39 1915
    86  4.2297e-02  2.5482e-02  2.0842e-02  3.3000e-01  4.2627e-02  0:06:55 1914
    87  4.1047e-02  2.4888e-02  2.0075e-02  3.2882e-01  4.1365e-02  0:05:32 1913
    88  3.9727e-02  2.4303e-02  1.9223e-02  3.2745e-01  4.0034e-02  0:10:48 1912

  iter  continuity  x-velocity  y-velocity  z-velocity      energy     time/iter
    89  3.8386e-02  2.3777e-02  1.8284e-02  3.2774e-01  3.8683e-02  0:08:38 1911
    90  3.7054e-02  2.3273e-02  1.7267e-02  3.2667e-01  3.7341e-02  0:06:54 1910
    91  3.5676e-02  2.2851e-02  1.6206e-02  3.2643e-01  3.5956e-02  0:05:31 1909
    92  3.4291e-02  2.2554e-02  1.5108e-02  3.2688e-01  3.4564e-02  0:10:46 1908
    93  3.2874e-02  2.2351e-02  1.3985e-02  3.2680e-01  3.3141e-02  0:08:37 1907
    94  3.1368e-02  2.2315e-02  1.2887e-02  3.2695e-01  3.1628e-02  0:06:53 1906
    95  2.9825e-02  2.2435e-02  1.1834e-02  3.2561e-01  3.0078e-02  0:05:30 1905
    96  2.8171e-02  2.2715e-02  1.0908e-02  3.2448e-01  2.8417e-02  0:10:45 1904
    97  2.6427e-02  2.3187e-02  1.0184e-02  3.2171e-01  2.6664e-02  0:08:36 1903
    98  2.4609e-02  2.3836e-02  9.7763e-03  3.1966e-01  2.4837e-02  0:06:52 1902
    99  2.2694e-02  2.4671e-02  9.7977e-03  3.1680e-01  2.2913e-02  0:05:30 1901

  iter  continuity  x-velocity  y-velocity  z-velocity      energy     time/iter
   100  2.0733e-02  2.5673e-02  1.0303e-02  3.1399e-01  2.0943e-02  0:10:44 1900
   101  1.8747e-02  2.6831e-02  1.1288e-02  3.1013e-01  1.8947e-02  0:08:35 1899
   102  1.6793e-02  2.8134e-02  1.2675e-02  3.0647e-01  1.6984e-02  0:06:51 1898
   103  1.4929e-02  2.9562e-02  1.4378e-02  3.0285e-01  1.5112e-02  0:05:29 1897
   104  1.3233e-02  3.1100e-02  1.6307e-02  2.9943e-01  1.3406e-02  0:10:42 1896
   105  1.1808e-02  3.2724e-02  1.8391e-02  2.9592e-01  1.1970e-02  0:08:34 1895
   106  1.0771e-02  3.4410e-02  2.0572e-02  2.9334e-01  1.0918e-02  0:06:51 1894
   107  1.0240e-02  3.6131e-02  2.2802e-02  2.9029e-01  1.0365e-02  0:05:28 1893
   108  1.0276e-02  3.7865e-02  2.5041e-02  2.8771e-01  1.0375e-02  0:10:41 1892
   109  1.0847e-02  3.9594e-02  2.7254e-02  2.8584e-01  1.0917e-02  0:08:32 1891
   110  1.1834e-02  4.1296e-02  2.9410e-02  2.8407e-01  1.1878e-02  0:06:50 1890

  iter  continuity  x-velocity  y-velocity  z-velocity      energy     time/iter
   111  1.3100e-02  4.2954e-02  3.1482e-02  2.8241e-01  1.3123e-02  0:05:28 1889
   112  1.4489e-02  4.4550e-02  3.3450e-02  2.8118e-01  1.4495e-02  0:10:40 1888
   113  1.5898e-02  4.6074e-02  3.5285e-02  2.8026e-01  1.5891e-02  0:08:31 1887
   114  1.7229e-02  4.7494e-02  3.6975e-02  2.7962e-01  1.7211e-02  0:06:49 1886
   115  1.8478e-02  4.8796e-02  3.8502e-02  2.7914e-01  1.8451e-02  0:05:27 1885
   116  1.9586e-02  4.9958e-02  3.9854e-02  2.7927e-01  1.9553e-02  0:10:38 1884
   117  2.0564e-02  5.0975e-02  4.1019e-02  2.7970e-01  2.0524e-02  0:08:30 1883
   118  2.1396e-02  5.1841e-02  4.1994e-02  2.8082e-01  2.1352e-02  0:06:48 1882
   119  2.2147e-02  5.2544e-02  4.2782e-02  2.8206e-01  2.2098e-02  0:05:26 1881
   120  2.2848e-02  5.3074e-02  4.3389e-02  2.8358e-01  2.2795e-02  0:10:37 1880
   121  2.3331e-02  5.3416e-02  4.3811e-02  2.8525e-01  2.3272e-02  0:08:29 1879

  iter  continuity  x-velocity  y-velocity  z-velocity      energy     time/iter
   122  2.3714e-02  5.3583e-02  4.4042e-02  2.8702e-01  2.3649e-02  0:06:47 1878
   123  2.4231e-02  5.3614e-02  4.4093e-02  2.8895e-01  2.4163e-02  0:05:26 1877
   124  2.4640e-02  5.3488e-02  4.3982e-02  2.9102e-01  2.4567e-02  0:10:36 1876
   125  2.4797e-02  5.3160e-02  4.3701e-02  2.9277e-01  2.4718e-02  0:08:28 1875
   126  2.5270e-02  5.2770e-02  4.3249e-02  2.9462e-01  2.5188e-02  0:06:46 1874
   127  2.5283e-02  5.2109e-02  4.2667e-02  2.9613e-01  2.5193e-02  0:05:25 1873
   128  2.5641e-02  5.1422e-02  4.1924e-02  2.9770e-01  2.5549e-02  0:10:34 1872
   129  2.5601e-02  5.0477e-02  4.1065e-02  2.9902e-01  2.5502e-02  0:08:27 1871
   130  2.5875e-02  4.9515e-02  4.0068e-02  3.0007e-01  2.5774e-02  0:06:45 1870
   131  2.5898e-02  4.8339e-02  3.8969e-02  3.0090e-01  2.5792e-02  0:05:24 1869
   132  2.5953e-02  4.7103e-02  3.7768e-02  3.0132e-01  2.5844e-02  0:10:33 1868

  iter  continuity  x-velocity  y-velocity  z-velocity      energy     time/iter
   133  2.6041e-02  4.5781e-02  3.6474e-02  3.0168e-01  2.5930e-02  0:08:26 1867
   134  2.5927e-02  4.4295e-02  3.5113e-02  3.0155e-01  2.5812e-02  0:06:45 1866
   135  2.5867e-02  4.2810e-02  3.3680e-02  3.0131e-01  2.5751e-02  0:05:23 1865
   136  2.5671e-02  4.1234e-02  3.2192e-02  3.0080e-01  2.5554e-02  0:10:31 1864
   137  2.5565e-02  3.9602e-02  3.0666e-02  2.9984e-01  2.5449e-02  0:08:25 1863
   138  2.5546e-02  3.7962e-02  2.9109e-02  2.9855e-01  2.5431e-02  0:06:44 1862
   139  2.5563e-02  3.6296e-02  2.7533e-02  2.9658e-01  2.5450e-02  0:05:23 1861
   140  2.5427e-02  3.4653e-02  2.5945e-02  2.9443e-01  2.5317e-02  0:10:30 1860
   141  2.4990e-02  3.2994e-02  2.4369e-02  2.9236e-01  2.4882e-02  0:08:24 1859
   142  2.4578e-02  3.1392e-02  2.2804e-02  2.9026e-01  2.4475e-02  0:06:43 1858
   143  2.4167e-02  2.9840e-02  2.1264e-02  2.8801e-01  2.4068e-02  0:05:22 1857

  iter  continuity  x-velocity  y-velocity  z-velocity      energy     time/iter
   144  2.3619e-02  2.8358e-02  1.9765e-02  2.8543e-01  2.3524e-02  0:10:29 1856
   145  2.3112e-02  2.6948e-02  1.8316e-02  2.8246e-01  2.3023e-02  0:08:23 1855
   146  2.2629e-02  2.5603e-02  1.6938e-02  2.7921e-01  2.2547e-02  0:06:42 1854
   147  2.2169e-02  2.4370e-02  1.5626e-02  2.7563e-01  2.2094e-02  0:05:21 1853
   148  2.1675e-02  2.3230e-02  1.4407e-02  2.7186e-01  2.1608e-02  0:10:27 1852
   149  2.1148e-02  2.2188e-02  1.3283e-02  2.6801e-01  2.1090e-02  0:08:22 1851
   150  2.0614e-02  2.1257e-02  1.2276e-02  2.6410e-01  2.0564e-02  0:06:41 1850
   151  2.0045e-02  2.0425e-02  1.1397e-02  2.6019e-01  2.0004e-02  0:05:21 1849
   152  1.9435e-02  1.9703e-02  1.0650e-02  2.5631e-01  1.9403e-02  0:10:26 1848
   153  1.8751e-02  1.9054e-02  1.0049e-02  2.5254e-01  1.8729e-02  0:08:21 1847
   154  1.8069e-02  1.8521e-02  9.5861e-03  2.4890e-01  1.8057e-02  0:06:40 1846

  iter  continuity  x-velocity  y-velocity  z-velocity      energy     time/iter
   155  1.7347e-02  1.8054e-02  9.2679e-03  2.4547e-01  1.7345e-02  0:05:20 1845
   156  1.6670e-02  1.7648e-02  9.0913e-03  2.4246e-01  1.6678e-02  0:10:25 1844
   157  1.6019e-02  1.7317e-02  9.0183e-03  2.3972e-01  1.6038e-02  0:08:19 1843
   158  1.5349e-02  1.7026e-02  9.0432e-03  2.3740e-01  1.5379e-02  0:06:39 1842
   159  1.4642e-02  1.6785e-02  9.1476e-03  2.3452e-01  1.4682e-02  0:05:19 1841
   160  1.3971e-02  1.6586e-02  9.2985e-03  2.3354e-01  1.4022e-02  0:10:23 1840
   161  1.3316e-02  1.6411e-02  9.4904e-03  2.3297e-01  1.3378e-02  0:08:18 1839
   162  1.2653e-02  1.6254e-02  9.7072e-03  2.3274e-01  1.2727e-02  0:06:38 1838
   163  1.2014e-02  1.6131e-02  9.9261e-03  2.3300e-01  1.2100e-02  0:11:26 1837
   164  1.1413e-02  1.6014e-02  1.0146e-02  2.3372e-01  1.1510e-02  0:09:09 1836
   165  1.0824e-02  1.5912e-02  1.0363e-02  2.3498e-01  1.0931e-02  0:07:19 1835

  iter  continuity  x-velocity  y-velocity  z-velocity      energy     time/iter
   166  1.0267e-02  1.5832e-02  1.0564e-02  2.3673e-01  1.0385e-02  0:05:51 1834
   167  9.7603e-03  1.5765e-02  1.0747e-02  2.3907e-01  9.8885e-03  0:10:47 1833
   168  9.3120e-03  1.5691e-02  1.0921e-02  2.4196e-01  9.4494e-03  0:08:37 1832
   169  8.9167e-03  1.5641e-02  1.1073e-02  2.4544e-01  9.0624e-03  0:06:54 1831
   170  8.5940e-03  1.5600e-02  1.1203e-02  2.4945e-01  8.7465e-03  0:05:31 1830
   171  8.3461e-03  1.5539e-02  1.1322e-02  2.5373e-01  8.5033e-03  0:10:30 1829
   172  8.1846e-03  1.5507e-02  1.1422e-02  2.5868e-01  8.3442e-03  0:08:24 1828
   173  8.1161e-03  1.5513e-02  1.1495e-02  2.6426e-01  8.2757e-03  0:06:43 1827
   174  8.1335e-03  1.5488e-02  1.1561e-02  2.7011e-01  8.2904e-03  0:05:22 1826
   175  8.2198e-03  1.5460e-02  1.1614e-02  2.7599e-01  8.3721e-03  0:04:18 1825
   176  8.3718e-03  1.5455e-02  1.1650e-02  2.8237e-01  8.5177e-03  0:09:31 1824

  iter  continuity  x-velocity  y-velocity  z-velocity      energy     time/iter
   177  8.5774e-03  1.5460e-02  1.1662e-02  2.8927e-01  8.7159e-03  0:07:36 1823
   178  8.8190e-03  1.5441e-02  1.1672e-02  2.9630e-01  8.9491e-03  0:06:05 1822
   179  9.0852e-03  1.5432e-02  1.1661e-02  3.0340e-01  9.2066e-03  0:10:56 1821
   180  9.3681e-03  1.5436e-02  1.1635e-02  3.1013e-01  9.4808e-03  0:08:44 1820
   181  9.6514e-03  1.5404e-02  1.1595e-02  3.1822e-01  9.7554e-03  0:06:59 1819
   182  9.9267e-03  1.5396e-02  1.1547e-02  3.2618e-01  1.0022e-02  0:05:35 1818
   183  1.0188e-02  1.5381e-02  1.1473e-02  3.3476e-01  1.0275e-02  0:10:31 1817
   184  1.0431e-02  1.5370e-02  1.1382e-02  3.4198e-01  1.0511e-02  0:08:25 1816
   185  1.0647e-02  1.5312e-02  1.1283e-02  3.4746e-01  1.0719e-02  0:06:44 1815
   186  1.0836e-02  1.5282e-02  1.1173e-02  3.5242e-01  1.0901e-02  0:05:23 1814
   187  1.0998e-02  1.5271e-02  1.1032e-02  3.5688e-01  1.1056e-02  0:10:21 1813

  iter  continuity  x-velocity  y-velocity  z-velocity      energy     time/iter
   188  1.1129e-02  1.5198e-02  1.0877e-02  3.6079e-01  1.1181e-02  0:08:16 1812
   189  1.1226e-02  1.5122e-02  1.0708e-02  3.6287e-01  1.1271e-02  0:06:37 1811
   190  1.1287e-02  1.5062e-02  1.0532e-02  3.6511e-01  1.1326e-02  0:05:17 1810
   191  1.1312e-02  1.5022e-02  1.0328e-02  3.6443e-01  1.1346e-02  0:10:15 1809
   192  1.1298e-02  1.4915e-02  1.0116e-02  3.6598e-01  1.1326e-02  0:08:12 1808
   193  1.1251e-02  1.4804e-02  9.8918e-03  3.6381e-01  1.1273e-02  0:06:33 1807
   194  1.1175e-02  1.4756e-02  9.6523e-03  3.6543e-01  1.1193e-02  0:05:15 1806
   195  1.1072e-02  1.4653e-02  9.4003e-03  3.6268e-01  1.1085e-02  0:10:13 1805
   196  1.0942e-02  1.4528e-02  9.1582e-03  3.5640e-01  1.0951e-02  0:08:10 1804
   197  1.0792e-02  1.4424e-02  8.9206e-03  3.5004e-01  1.0796e-02  0:06:32 1803
   198  1.0618e-02  1.4388e-02  8.6676e-03  3.4289e-01  1.0618e-02  0:05:13 1802

  iter  continuity  x-velocity  y-velocity  z-velocity      energy     time/iter
   199  1.0416e-02  1.4219e-02  8.4326e-03  3.3520e-01  1.0412e-02  0:10:11 1801
   200  1.0200e-02  1.4058e-02  8.2201e-03  3.2633e-01  1.0192e-02  0:08:08 1800
   201  9.9780e-03  1.3975e-02  8.0303e-03  3.1884e-01  9.9671e-03  0:06:30 1799
   202  9.7558e-03  1.3975e-02  7.8571e-03  3.0945e-01  9.7421e-03  0:05:12 1798
   203  9.5275e-03  1.3819e-02  7.7361e-03  2.9629e-01  9.5108e-03  0:10:09 1797
   204  9.3009e-03  1.3666e-02  7.6566e-03  2.8535e-01  9.2812e-03  0:08:07 1796
   205  9.0761e-03  1.3599e-02  7.6018e-03  2.7436e-01  9.0543e-03  0:06:29 1795
   206  8.8618e-03  1.3564e-02  7.5908e-03  2.6406e-01  8.8386e-03  0:05:11 1794
   207  8.6587e-03  1.3401e-02  7.6693e-03  2.5266e-01  8.6336e-03  0:10:07 1793
   208  8.4817e-03  1.3305e-02  7.7771e-03  2.4390e-01  8.4552e-03  0:08:06 1792
   209  8.3247e-03  1.3265e-02  7.9001e-03  2.3511e-01  8.2979e-03  0:06:28 1791

  iter  continuity  x-velocity  y-velocity  z-velocity      energy     time/iter
   210  8.1900e-03  1.3216e-02  8.0667e-03  2.2674e-01  8.1636e-03  0:05:10 1790
   211  8.0753e-03  1.3047e-02  8.3017e-03  2.1950e-01  8.0487e-03  0:10:06 1789
   212  7.9766e-03  1.2941e-02  8.5424e-03  2.1254e-01  7.9503e-03  0:08:05 1788
   213  7.9079e-03  1.2943e-02  8.7868e-03  2.0687e-01  7.8830e-03  0:06:27 1787
   214  7.8635e-03  1.2906e-02  9.0570e-03  2.0184e-01  7.8402e-03  0:05:10 1786
   215  7.8375e-03  1.2781e-02  9.3395e-03  1.9766e-01  7.8155e-03  0:10:05 1785
   216  7.8426e-03  1.2698e-02  9.6165e-03  1.9426e-01  7.8221e-03  0:08:03 1784
   217  7.8651e-03  1.2682e-02  9.8539e-03  1.9113e-01  7.8472e-03  0:06:27 1783
   218  7.8959e-03  1.2607e-02  1.0101e-02  1.8888e-01  7.8802e-03  0:05:09 1782
   219  7.9374e-03  1.2538e-02  1.0340e-02  1.8699e-01  7.9236e-03  0:10:03 1781
   220  7.9823e-03  1.2482e-02  1.0553e-02  1.8590e-01  7.9702e-03  0:08:02 1780

  iter  continuity  x-velocity  y-velocity  z-velocity      energy     time/iter
   221  8.0282e-03  1.2457e-02  1.0720e-02  1.8555e-01  8.0182e-03  0:06:26 1779
   222  8.0568e-03  1.2418e-02  1.0856e-02  1.8572e-01  8.0489e-03  0:05:08 1778
   223  8.0704e-03  1.2374e-02  1.0966e-02  1.8617e-01  8.0643e-03  0:10:02 1777
   224  8.0676e-03  1.2307e-02  1.1052e-02  1.8701e-01  8.0630e-03  0:08:01 1776
   225  8.0531e-03  1.2293e-02  1.1105e-02  1.8825e-01  8.0499e-03  0:06:25 1775
   226  8.0223e-03  1.2265e-02  1.1115e-02  1.9008e-01  8.0203e-03  0:05:08 1774
   227  7.9766e-03  1.2246e-02  1.1093e-02  1.9224e-01  7.9758e-03  0:10:01 1773
   228  7.9181e-03  1.2212e-02  1.1046e-02  1.9480e-01  7.9182e-03  0:08:00 1772
   229  7.8518e-03  1.2213e-02  1.0961e-02  1.9779e-01  7.8529e-03  0:06:24 1771
   230  7.7759e-03  1.2185e-02  1.0855e-02  2.0102e-01  7.7777e-03  0:05:07 1770
   231  7.6890e-03  1.2166e-02  1.0719e-02  2.0454e-01  7.6912e-03  0:09:59 1769

  iter  continuity  x-velocity  y-velocity  z-velocity      energy     time/iter
   232  7.5956e-03  1.2128e-02  1.0569e-02  2.0832e-01  7.5978e-03  0:07:59 1768
   233  7.4948e-03  1.2178e-02  1.0393e-02  2.1235e-01  7.4971e-03  0:06:23 1767
   234  7.3774e-03  1.2259e-02  1.0192e-02  2.1644e-01  7.3801e-03  0:05:06 1766
   235  7.2324e-03  1.2285e-02  9.9828e-03  2.2055e-01  7.2350e-03  0:09:58 1765
   236  7.0610e-03  1.2333e-02  9.7722e-03  2.2468e-01  7.0630e-03  0:07:58 1764
   237  6.8650e-03  1.2427e-02  9.5565e-03  2.2879e-01  6.8664e-03  0:06:22 1763
   238  6.6471e-03  1.2555e-02  9.3276e-03  2.3307e-01  6.6483e-03  0:05:06 1762
   239  6.4112e-03  1.2709e-02  9.1079e-03  2.3740e-01  6.4123e-03  0:09:57 1761
   240  6.1543e-03  1.2830e-02  8.9029e-03  2.4176e-01  6.1544e-03  0:07:57 1760
   241  5.8872e-03  1.2986e-02  8.7064e-03  2.4614e-01  5.8860e-03  0:06:21 1759
   242  5.6150e-03  1.3181e-02  8.5135e-03  2.5052e-01  5.6127e-03  0:10:57 1758

  iter  continuity  x-velocity  y-velocity  z-velocity      energy     time/iter
   243  5.3381e-03  1.3383e-02  8.3224e-03  2.5476e-01  5.3354e-03  0:08:45 1757
   244  5.0548e-03  1.3541e-02  8.1427e-03  2.5876e-01  5.0516e-03  0:07:00 1756
   245  4.7756e-03  1.3690e-02  7.9878e-03  2.6237e-01  4.7713e-03  0:05:36 1755
   246  4.5092e-03  1.3837e-02  7.8573e-03  2.6552e-01  4.5034e-03  0:10:19 1754
   247  4.2517e-03  1.3958e-02  7.7360e-03  2.6801e-01  4.2448e-03  0:08:15 1753
   248  4.0063e-03  1.4081e-02  7.6401e-03  2.6992e-01  3.9986e-03  0:06:36 1752
   249  3.7658e-03  1.4064e-02  7.5588e-03  2.7156e-01  3.7564e-03  0:05:16 1751
   250  3.5364e-03  1.3980e-02  7.4890e-03  2.7333e-01  3.5256e-03  0:10:03 1750
   251  3.3233e-03  1.3885e-02  7.4401e-03  2.7469e-01  3.3116e-03  0:08:02 1749
   252  3.1309e-03  1.3794e-02  7.4163e-03  2.7657e-01  3.1188e-03  0:06:25 1748
   253  2.9628e-03  1.3731e-02  7.4236e-03  2.7707e-01  2.9500e-03  0:05:08 1747

  iter  continuity  x-velocity  y-velocity  z-velocity      energy     time/iter
   254  2.8353e-03  1.3755e-02  7.4684e-03  2.7862e-01  2.8212e-03  0:09:56 1746
   255  2.7460e-03  1.3842e-02  7.5269e-03  2.8594e-01  2.7313e-03  0:07:56 1745
   256  2.7084e-03  1.3948e-02  7.6090e-03  2.8783e-01  2.6939e-03  0:06:21 1744
   257  2.7193e-03  1.4059e-02  7.7123e-03  2.8644e-01  2.7059e-03  0:05:04 1743
   258  2.7762e-03  1.4168e-02  7.8424e-03  2.8873e-01  2.7636e-03  0:09:52 1742
   259  2.9025e-03  1.4394e-02  8.0043e-03  2.8562e-01  2.8912e-03  0:07:53 1741
   260  3.0955e-03  1.4687e-02  8.1813e-03  2.8245e-01  3.0859e-03  0:06:18 1740
   261  3.3450e-03  1.5042e-02  8.3898e-03  2.8211e-01  3.3370e-03  0:05:02 1739
   262  3.6454e-03  1.5392e-02  8.6216e-03  2.8377e-01  3.6387e-03  0:09:49 1738
   263  3.9933e-03  1.5737e-02  8.8678e-03  2.9069e-01  3.9874e-03  0:07:51 1737
   264  4.3797e-03  1.6106e-02  9.1255e-03  2.9884e-01  4.3748e-03  0:06:17 1736

  iter  continuity  x-velocity  y-velocity  z-velocity      energy     time/iter
   265  4.8258e-03  1.6487e-02  9.3975e-03  3.1131e-01  4.8220e-03  0:05:01 1735
   266  5.3525e-03  1.6900e-02  9.6816e-03  3.2839e-01  5.3496e-03  0:09:48 1734
   267  5.9641e-03  1.7322e-02  9.9752e-03  3.2891e-01  5.9617e-03  0:07:50 1733
   268  6.5484e-03  1.7810e-02  1.0282e-02  3.2991e-01  6.5462e-03  0:06:16 1732
   269  7.0452e-03  1.8285e-02  1.0586e-02  3.3423e-01  7.0433e-03  0:05:00 1731
   270  7.6462e-03  1.8737e-02  1.0891e-02  3.4003e-01  7.6444e-03  0:09:46 1730
   271  8.2867e-03  1.9174e-02  1.1186e-02  3.4243e-01  8.2852e-03  0:07:49 1729
   272  8.9278e-03  1.9634e-02  1.1479e-02  3.5083e-01  8.9262e-03  0:06:15 1728
   273  9.5426e-03  2.0052e-02  1.1766e-02  3.6459e-01  9.5411e-03  0:05:00 1727
   274  1.0071e-02  2.0451e-02  1.2044e-02  3.8298e-01  1.0070e-02  0:09:45 1726
   275  1.0551e-02  2.0847e-02  1.2306e-02  3.9943e-01  1.0549e-02  0:07:48 1725

  iter  continuity  x-velocity  y-velocity  z-velocity      energy     time/iter
   276  1.1035e-02  2.1241e-02  1.2556e-02  4.3781e-01  1.1033e-02  0:06:14 1724
   277  1.1525e-02  2.1564e-02  1.2782e-02  4.9764e-01  1.1524e-02  0:04:59 1723
   278  1.1947e-02  2.1858e-02  1.2992e-02  5.5112e-01  1.1945e-02  0:09:43 1722
   279  1.2278e-02  2.2124e-02  1.3183e-02  5.6641e-01  1.2276e-02  0:07:46 1721
   280  1.2583e-02  2.2432e-02  1.3346e-02  5.7217e-01  1.2581e-02  0:06:13 1720
   281  1.2905e-02  2.2770e-02  1.3482e-02  5.5754e-01  1.2903e-02  0:04:58 1719
   282  1.3194e-02  2.3094e-02  1.3616e-02  5.4338e-01  1.3192e-02  0:09:42 1718
   283  1.3488e-02  2.3406e-02  1.3762e-02  5.4873e-01  1.3485e-02  0:07:45 1717
   284  1.3715e-02  2.3697e-02  1.3941e-02  5.5418e-01  1.3712e-02  0:06:12 1716
   285  1.3966e-02  2.4021e-02  1.4123e-02  5.6551e-01  1.3963e-02  0:04:57 1715
   286  1.4198e-02  2.4321e-02  1.4270e-02  5.7921e-01  1.4195e-02  0:09:41 1714

  iter  continuity  x-velocity  y-velocity  z-velocity      energy     time/iter
   287  1.4389e-02  2.4519e-02  1.4359e-02  5.8432e-01  1.4386e-02  0:07:44 1713
   288  1.4551e-02  2.4667e-02  1.4375e-02  5.7057e-01  1.4548e-02  0:06:11 1712
   289  1.4684e-02  2.4743e-02  1.4322e-02  5.5576e-01  1.4681e-02  0:04:57 1711
   290  1.4803e-02  2.4702e-02  1.4228e-02  5.3708e-01  1.4800e-02  0:09:39 1710
   291  1.4939e-02  2.4651e-02  1.4105e-02  5.2747e-01  1.4935e-02  0:07:43 1709
   292  1.5083e-02  2.4611e-02  1.3978e-02  5.2543e-01  1.5079e-02  0:06:10 1708
   293  1.5197e-02  2.4522e-02  1.3845e-02  5.5415e-01  1.5193e-02  0:04:56 1707
   294  1.5299e-02  2.4457e-02  1.3719e-02  6.4314e-01  1.5295e-02  0:09:38 1706
   295  1.5366e-02  2.4398e-02  1.3598e-02  8.8425e-01  1.5362e-02  0:07:42 1705
   296  1.5426e-02  2.4429e-02  1.3490e-02  8.8061e-01  1.5422e-02  0:06:09 1704
   297  1.5501e-02  2.4512e-02  1.3375e-02  9.7733e-01  1.5496e-02  0:04:55 1703

  iter  continuity  x-velocity  y-velocity  z-velocity      energy     time/iter
   298  1.5559e-02  2.4592e-02  1.3228e-02  1.0455e+00  1.5554e-02  0:09:37 1702
   299  1.5601e-02  2.4649e-02  1.3039e-02  1.0597e+00  1.5595e-02  0:07:41 1701
   300  1.5611e-02  2.4535e-02  1.2824e-02  1.0571e+00  1.5606e-02  0:06:09 1700
   301  1.5592e-02  2.4270e-02  1.2581e-02  9.8293e-01  1.5586e-02  0:04:55 1699
   302  1.5545e-02  2.3961e-02  1.2375e-02  8.5802e-01  1.5540e-02  0:09:35 1698
   303  1.5487e-02  2.3705e-02  1.2211e-02  7.6030e-01  1.5481e-02  0:07:40 1697
   304  1.5442e-02  2.3553e-02  1.2064e-02  6.9763e-01  1.5435e-02  0:06:08 1696
   305  1.5369e-02  2.3450e-02  1.1902e-02  6.7103e-01  1.5362e-02  0:04:54 1695
   306  1.5290e-02  2.3301e-02  1.1729e-02  6.7143e-01  1.5283e-02  0:09:34 1694
   307  1.5182e-02  2.3124e-02  1.1542e-02  6.6716e-01  1.5175e-02  0:07:39 1693
   308  1.5055e-02  2.2895e-02  1.1366e-02  6.8703e-01  1.5048e-02  0:06:07 1692

  iter  continuity  x-velocity  y-velocity  z-velocity      energy     time/iter
   309  1.4906e-02  2.2575e-02  1.1212e-02  6.9582e-01  1.4898e-02  0:04:53 1691
   310  1.4753e-02  2.2305e-02  1.1097e-02  7.1037e-01  1.4745e-02  0:09:32 1690
   311  1.4582e-02  2.2060e-02  1.0998e-02  7.2194e-01  1.4573e-02  0:07:38 1689
   312  1.4407e-02  2.1834e-02  1.0912e-02  7.2207e-01  1.4398e-02  0:06:06 1688
   313  1.4227e-02  2.1663e-02  1.0851e-02  7.2786e-01  1.4217e-02  0:04:53 1687
   314  1.4024e-02  2.1489e-02  1.0819e-02  7.5827e-01  1.4014e-02  0:09:31 1686
   315  1.3791e-02  2.1337e-02  1.0801e-02  8.1488e-01  1.3781e-02  0:07:37 1685
   316  1.3545e-02  2.1205e-02  1.0799e-02  9.0721e-01  1.3534e-02  0:06:05 1684
   317  1.3343e-02  2.1205e-02  1.0784e-02  1.0255e+00  1.3331e-02  0:10:29 1683
   318  1.3146e-02  2.1257e-02  1.0772e-02  1.1324e+00  1.3134e-02  0:08:23 1682
   319  1.2910e-02  2.1333e-02  1.0771e-02  1.1892e+00  1.2898e-02  0:06:42 1681

  iter  continuity  x-velocity  y-velocity  z-velocity      energy     time/iter
   320  1.2681e-02  2.1362e-02  1.0772e-02  1.2110e+00  1.2668e-02  0:05:21 1680
   321  1.2447e-02  2.1292e-02  1.0770e-02  1.2133e+00  1.2433e-02  0:09:53 1679
   322  1.2168e-02  2.1129e-02  1.0787e-02  1.2127e+00  1.2153e-02  0:07:54 1678
   323  1.1822e-02  2.0896e-02  1.0863e-02  1.1477e+00  1.1807e-02  0:06:19 1677
   324  1.1521e-02  2.0773e-02  1.1028e-02  1.0561e+00  1.1504e-02  0:05:03 1676
   325  1.1256e-02  2.0725e-02  1.1254e-02  1.0168e+00  1.1239e-02  0:09:37 1675
   326  1.0919e-02  2.0739e-02  1.1505e-02  1.0029e+00  1.0900e-02  0:07:41 1674
   327  1.0461e-02  2.0794e-02  1.1729e-02  1.0189e+00  1.0442e-02  0:06:09 1673
   328  1.0007e-02  2.0732e-02  1.1883e-02  1.0371e+00  9.9866e-03  0:04:55 1672
   329  9.6984e-03  2.0578e-02  1.1994e-02  1.0198e+00  9.6774e-03  0:09:30 1671
   330  9.2010e-03  2.0318e-02  1.2071e-02  1.0088e+00  9.1794e-03  0:07:36 1670

  iter  continuity  x-velocity  y-velocity  z-velocity      energy     time/iter
   331  8.6530e-03  2.0053e-02  1.2153e-02  9.6357e-01  8.6308e-03  0:06:04 1669
   332  8.0063e-03  1.9864e-02  1.2291e-02  9.5492e-01  7.9834e-03  0:04:51 1668
   333  7.5602e-03  1.9685e-02  1.2476e-02  9.4600e-01  7.5371e-03  0:09:26 1667
   334  7.1631e-03  1.9593e-02  1.2696e-02  1.0254e+00  7.1402e-03  0:07:33 1666
   335  6.7351e-03  1.9608e-02  1.2946e-02  1.1093e+00  6.7129e-03  0:06:02 1665
   336  6.4493e-03  1.9765e-02  1.3207e-02  1.3154e+00  6.4289e-03  0:04:49 1664
   337  6.3774e-03  2.0054e-02  1.3469e-02  1.4529e+00  6.3598e-03  0:09:24 1663
   338  6.4706e-03  2.0373e-02  1.3694e-02  1.5286e+00  6.4566e-03  0:07:31 1662
   339  6.5695e-03  2.0493e-02  1.3884e-02  1.5272e+00  6.5591e-03  0:06:01 1661
   340  6.6445e-03  2.0352e-02  1.4033e-02  1.4320e+00  6.6373e-03  0:04:48 1660
   341  6.7552e-03  1.9993e-02  1.4169e-02  1.3295e+00  6.7508e-03  0:09:22 1659

  iter  continuity  x-velocity  y-velocity  z-velocity      energy     time/iter
   342  6.9207e-03  1.9621e-02  1.4311e-02  1.2249e+00  6.9189e-03  0:07:30 1658
   343  7.1418e-03  1.9317e-02  1.4484e-02  1.0734e+00  7.1422e-03  0:05:59 1657
   344  7.4261e-03  1.9182e-02  1.4675e-02  9.2923e-01  7.4284e-03  0:04:47 1656
   345  7.7683e-03  1.9187e-02  1.4883e-02  8.3336e-01  7.7721e-03  0:09:21 1655
   346  8.1601e-03  1.9278e-02  1.5076e-02  7.8795e-01  8.1652e-03  0:07:28 1654
   347  8.5396e-03  1.9322e-02  1.5235e-02  7.7225e-01  8.5458e-03  0:05:58 1653
   348  8.8807e-03  1.9339e-02  1.5344e-02  7.6994e-01  8.8878e-03  0:10:17 1652
   349  9.1663e-03  1.9267e-02  1.5427e-02  7.7234e-01  9.1741e-03  0:08:13 1651
   350  9.4109e-03  1.9173e-02  1.5480e-02  7.8206e-01  9.4194e-03  0:06:34 1650
   351  9.6246e-03  1.9046e-02  1.5528e-02  7.9612e-01  9.6338e-03  0:05:15 1649
   352  9.8056e-03  1.9000e-02  1.5570e-02  8.0037e-01  9.8154e-03  0:09:42 1648

  iter  continuity  x-velocity  y-velocity  z-velocity      energy     time/iter
   353  9.9606e-03  1.9006e-02  1.5603e-02  7.9932e-01  9.9709e-03  0:07:45 1647
   354  1.0092e-02  1.9068e-02  1.5626e-02  7.7636e-01  1.0103e-02  0:06:12 1646
   355  1.0202e-02  1.9079e-02  1.5637e-02  7.4387e-01  1.0213e-02  0:04:57 1645
   356  1.0304e-02  1.9149e-02  1.5635e-02  7.0996e-01  1.0314e-02  0:09:26 1644
   357  1.0401e-02  1.9287e-02  1.5612e-02  6.7895e-01  1.0411e-02  0:07:33 1643
   358  1.0463e-02  1.9477e-02  1.5578e-02  6.4914e-01  1.0473e-02  0:06:02 1642
   359  1.0485e-02  1.9633e-02  1.5538e-02  6.1677e-01  1.0495e-02  0:04:50 1641
   360  1.0465e-02  1.9754e-02  1.5500e-02  5.8466e-01  1.0474e-02  0:09:19 1640
   361  1.0401e-02  1.9907e-02  1.5457e-02  5.5270e-01  1.0410e-02  0:07:27 1639
   362  1.0294e-02  2.0055e-02  1.5401e-02  5.2728e-01  1.0303e-02  0:05:58 1638
   363  1.0152e-02  2.0207e-02  1.5338e-02  5.0823e-01  1.0161e-02  0:04:46 1637

  iter  continuity  x-velocity  y-velocity  z-velocity      energy     time/iter
   364  9.9805e-03  2.0352e-02  1.5277e-02  4.9278e-01  9.9897e-03  0:09:16 1636
   365  9.7857e-03  2.0486e-02  1.5213e-02  4.8252e-01  9.7950e-03  0:07:24 1635
   366  9.5846e-03  2.0681e-02  1.5141e-02  4.7415e-01  9.5940e-03  0:05:55 1634
   367  9.3797e-03  2.0901e-02  1.5049e-02  4.6940e-01  9.3892e-03  0:04:44 1633
   368  9.1697e-03  2.1091e-02  1.4956e-02  4.7173e-01  9.1791e-03  0:09:13 1632
   369  8.9527e-03  2.1301e-02  1.4867e-02  4.7425e-01  8.9622e-03  0:07:23 1631
   370  8.7203e-03  2.1474e-02  1.4757e-02  4.7489e-01  8.7299e-03  0:05:54 1630
   371  8.4753e-03  2.1689e-02  1.4644e-02  4.7703e-01  8.4851e-03  0:10:09 1629
   372  8.2125e-03  2.1858e-02  1.4535e-02  4.7701e-01  8.2229e-03  0:08:07 1628
   373  7.9311e-03  2.1919e-02  1.4431e-02  4.7142e-01  7.9423e-03  0:06:29 1627
   374  7.6478e-03  2.1989e-02  1.4326e-02  4.6815e-01  7.6600e-03  0:05:11 1626

  iter  continuity  x-velocity  y-velocity  z-velocity      energy     time/iter
   375  7.3694e-03  2.2080e-02  1.4211e-02  4.6844e-01  7.3825e-03  0:09:34 1625
   376  7.1183e-03  2.2197e-02  1.4086e-02  4.6884e-01  7.1322e-03  0:07:39 1624
   377  6.8967e-03  2.2326e-02  1.3960e-02  4.7057e-01  6.9112e-03  0:06:07 1623
   378  6.6940e-03  2.2356e-02  1.3851e-02  4.7527e-01  6.7089e-03  0:04:53 1622
   379  6.5209e-03  2.2412e-02  1.3741e-02  4.8310e-01  6.5360e-03  0:09:19 1621
   380  6.3502e-03  2.2440e-02  1.3605e-02  4.9705e-01  6.3655e-03  0:07:27 1620
   381  6.1829e-03  2.2484e-02  1.3463e-02  5.1148e-01  6.1981e-03  0:05:57 1619
   382  6.0172e-03  2.2496e-02  1.3320e-02  5.2809e-01  6.0322e-03  0:04:45 1618
   383  5.8307e-03  2.2368e-02  1.3184e-02  5.4221e-01  5.8455e-03  0:09:12 1617
   384  5.6570e-03  2.2251e-02  1.3051e-02  5.5500e-01  5.6716e-03  0:07:21 1616
   385  5.4918e-03  2.2082e-02  1.2897e-02  5.6703e-01  5.5059e-03  0:05:53 1615

  iter  continuity  x-velocity  y-velocity  z-velocity      energy     time/iter
   386  5.3625e-03  2.1924e-02  1.2727e-02  5.8100e-01  5.3758e-03  0:04:42 1614
   387  5.2448e-03  2.1769e-02  1.2546e-02  5.9155e-01  5.2570e-03  0:09:08 1613
   388  5.1211e-03  2.1509e-02  1.2361e-02  5.9762e-01  5.1320e-03  0:07:18 1612
   389  5.0434e-03  2.1318e-02  1.2168e-02  6.0752e-01  5.0526e-03  0:05:50 1611
   390  4.9936e-03  2.1088e-02  1.1957e-02  6.2076e-01  5.0005e-03  0:04:40 1610
   391  4.9730e-03  2.0879e-02  1.1731e-02  6.3761e-01  4.9774e-03  0:09:06 1609
   392  4.9705e-03  2.0658e-02  1.1489e-02  6.5638e-01  4.9722e-03  0:07:16 1608
   393  4.9724e-03  2.0359e-02  1.1244e-02  6.8279e-01  4.9714e-03  0:05:49 1607
   394  4.9903e-03  2.0108e-02  1.0985e-02  7.0893e-01  4.9867e-03  0:04:39 1606
   395  5.0150e-03  1.9809e-02  1.0716e-02  7.3622e-01  5.0088e-03  0:09:04 1605
   396  5.0358e-03  1.9483e-02  1.0443e-02  7.6449e-01  5.0272e-03  0:07:15 1604

  iter  continuity  x-velocity  y-velocity  z-velocity      energy     time/iter
   397  5.0558e-03  1.9174e-02  1.0155e-02  7.8973e-01  5.0449e-03  0:05:48 1603
   398  5.1136e-03  1.8899e-02  9.8810e-03  8.1622e-01  5.1005e-03  0:04:38 1602
   399  5.2729e-03  1.8629e-02  9.5908e-03  8.5079e-01  5.2576e-03  0:09:02 1601
   400  5.2856e-03  1.8373e-02  9.2940e-03  8.6083e-01  5.2689e-03  0:07:14 1600
   401  5.2835e-03  1.8132e-02  9.0040e-03  8.6969e-01  5.2655e-03  0:05:47 1599
   402  5.2351e-03  1.7873e-02  8.7210e-03  8.8037e-01  5.2158e-03  0:09:57 1598
   403  5.2170e-03  1.7639e-02  8.4581e-03  8.9718e-01  5.1965e-03  0:07:57 1597
   404  5.2076e-03  1.7474e-02  8.1931e-03  9.1711e-01  5.1861e-03  0:06:21 1596
   405  5.2042e-03  1.7340e-02  7.9392e-03  9.4092e-01  5.1818e-03  0:05:05 1595
   406  5.2242e-03  1.7187e-02  7.6924e-03  9.6868e-01  5.2012e-03  0:09:23 1594
   407  5.3181e-03  1.6988e-02  7.4707e-03  1.0002e+00  5.2948e-03  0:07:30 1593

  iter  continuity  x-velocity  y-velocity  z-velocity      energy     time/iter
   408  5.4020e-03  1.6862e-02  7.2775e-03  1.0324e+00  5.3787e-03  0:06:00 1592
   409  5.3383e-03  1.6796e-02  7.0932e-03  1.0615e+00  5.3147e-03  0:10:06 1591
   410  5.3027e-03  1.6669e-02  6.9210e-03  1.0943e+00  5.2790e-03  0:08:04 1590
   411  5.2696e-03  1.6498e-02  6.7655e-03  1.1266e+00  5.2458e-03  0:06:27 1589
   412  5.2799e-03  1.6375e-02  6.6282e-03  1.1619e+00  5.2562e-03  0:10:27 1588
   413  5.2528e-03  1.6275e-02  6.5129e-03  1.1878e+00  5.2294e-03  0:08:21 1587
   414  5.1974e-03  1.6232e-02  6.4201e-03  1.2039e+00  5.1746e-03  0:06:41 1586
   415  5.1592e-03  1.6160e-02  6.3448e-03  1.2227e+00  5.1371e-03  0:05:20 1585
   416  5.1494e-03  1.6091e-02  6.2798e-03  1.2438e+00  5.1280e-03  0:09:33 1584
   417  5.1832e-03  1.6031e-02  6.2206e-03  1.2727e+00  5.1625e-03  0:07:38 1583
   418  5.2007e-03  1.5912e-02  6.1711e-03  1.3028e+00  5.1808e-03  0:06:06 1582

  iter  continuity  x-velocity  y-velocity  z-velocity      energy     time/iter
   419  5.1986e-03  1.5875e-02  6.1221e-03  1.3310e+00  5.1795e-03  0:10:09 1581
   420  5.2029e-03  1.5763e-02  6.0684e-03  1.3630e+00  5.1847e-03  0:08:07 1580
   421  5.2535e-03  1.5728e-02  6.0189e-03  1.3998e+00  5.2361e-03  0:06:29 1579
   422  5.3120e-03  1.5784e-02  5.9734e-03  1.4338e+00  5.2954e-03  0:05:11 1578
   423  5.3205e-03  1.5749e-02  5.9227e-03  1.4639e+00  5.3047e-03  0:09:24 1577
   424  5.3462e-03  1.5662e-02  5.8858e-03  1.4998e+00  5.3311e-03  0:07:31 1576
   425  5.4236e-03  1.5627e-02  5.8573e-03  1.5432e+00  5.4091e-03  0:06:01 1575
   426  5.5297e-03  1.5693e-02  5.8036e-03  1.5854e+00  5.5158e-03  0:10:03 1574
   427  5.6295e-03  1.5727e-02  5.7608e-03  1.6269e+00  5.6163e-03  0:08:02 1573
   428  5.6877e-03  1.5705e-02  5.7299e-03  1.6731e+00  5.6752e-03  0:06:26 1572
   429  5.7504e-03  1.5585e-02  5.6914e-03  1.7332e+00  5.7384e-03  0:05:08 1571

  iter  continuity  x-velocity  y-velocity  z-velocity      energy     time/iter
   430  5.7816e-03  1.5392e-02  5.6625e-03  1.7791e+00  5.7700e-03  0:09:20 1570
   431  5.7477e-03  1.5388e-02  5.6088e-03  1.8040e+00  5.7368e-03  0:07:28 1569
   432  5.7265e-03  1.5529e-02  5.5764e-03  1.8440e+00  5.7162e-03  0:05:58 1568
   433  5.7187e-03  1.5545e-02  5.5529e-03  1.8938e+00  5.7089e-03  0:10:00 1567
   434  5.6888e-03  1.5513e-02  5.5234e-03  1.8980e+00  5.6794e-03  0:08:00 1566
   435  5.6233e-03  1.5377e-02  5.5223e-03  1.9043e+00  5.6142e-03  0:06:23 1565
   436  5.5680e-03  1.5203e-02  5.5230e-03  1.9482e+00  5.5591e-03  0:05:07 1564
   437  5.5517e-03  1.5029e-02  5.5563e-03  2.0300e+00  5.5428e-03  0:09:18 1563
   438  5.6169e-03  1.5122e-02  5.5483e-03  2.1429e+00  5.6080e-03  0:07:26 1562
   439  5.6472e-03  1.5240e-02  5.5502e-03  2.2619e+00  5.6385e-03  0:05:56 1561
   440  5.6539e-03  1.5412e-02  5.5392e-03  2.4021e+00  5.6456e-03  0:09:57 1560

  iter  continuity  x-velocity  y-velocity  z-velocity      energy     time/iter
   441  5.6206e-03  1.5511e-02  5.5599e-03  2.5480e+00  5.6126e-03  0:07:57 1559
   442  5.5677e-03  1.5481e-02  5.6086e-03  2.7085e+00  5.5599e-03  0:06:22 1558
   443  5.5737e-03  1.5497e-02  5.6836e-03  2.8794e+00  5.5659e-03  0:05:05 1557
   444  5.5748e-03  1.5578e-02  5.7000e-03  3.0432e+00  5.5671e-03  0:09:15 1556
   445  5.5653e-03  1.5699e-02  5.7403e-03  3.1932e+00  5.5578e-03  0:07:24 1555
   446  5.5553e-03  1.5715e-02  5.7952e-03  3.3194e+00  5.5479e-03  0:05:55 1554
   447  5.5773e-03  1.5830e-02  5.8417e-03  3.4095e+00  5.5699e-03  0:04:44 1553
   448  5.6995e-03  1.5955e-02  5.9010e-03  3.4801e+00  5.6919e-03  0:08:57 1552
   449  5.9235e-03  1.6112e-02  5.9508e-03  3.5457e+00  5.9157e-03  0:07:09 1551
   450  6.1133e-03  1.6391e-02  5.9557e-03  3.5997e+00  6.1052e-03  0:05:43 1550
   451  6.1931e-03  1.6557e-02  5.9949e-03  3.6002e+00  6.1850e-03  0:09:44 1549

  iter  continuity  x-velocity  y-velocity  z-velocity      energy     time/iter
   452  6.2664e-03  1.6689e-02  6.0218e-03  3.5768e+00  6.2584e-03  0:07:47 1548
   453  6.4638e-03  1.6660e-02  6.0539e-03  3.6038e+00  6.4559e-03  0:06:13 1547
   454  6.6254e-03  1.6677e-02  6.0644e-03  3.6169e+00  6.6176e-03  0:10:08 1546
   455  6.6452e-03  1.6576e-02  6.0746e-03  3.5987e+00  6.6372e-03  0:08:06 1545
   456  6.5303e-03  1.6235e-02  6.1486e-03  3.5470e+00  6.5218e-03  0:06:28 1544
   457  6.4877e-03  1.5998e-02  6.1839e-03  3.5003e+00  6.4793e-03  0:05:11 1543
   458  6.5381e-03  1.5850e-02  6.1808e-03  3.4864e+00  6.5301e-03  0:09:17 1542
   459  6.5667e-03  1.5787e-02  6.1954e-03  3.5030e+00  6.5591e-03  0:07:25 1541
   460  6.5362e-03  1.5870e-02  6.2180e-03  3.5308e+00  6.5290e-03  0:05:56 1540
   461  6.4535e-03  1.5897e-02  6.2524e-03  3.6171e+00  6.4465e-03  0:09:52 1539
   462  6.2925e-03  1.5524e-02  6.2999e-03  3.7308e+00  6.2855e-03  0:07:54 1538

  iter  continuity  x-velocity  y-velocity  z-velocity      energy     time/iter
   463  6.2275e-03  1.5249e-02  6.3615e-03  3.9193e+00  6.2208e-03  0:06:19 1537
   464  6.2318e-03  1.4871e-02  6.3979e-03  4.1308e+00  6.2252e-03  0:10:10 1536
   465  6.2552e-03  1.4785e-02  6.4179e-03  4.3581e+00  6.2486e-03  0:08:08 1535
   466  6.2987e-03  1.4884e-02  6.4477e-03  4.6090e+00  6.2922e-03  0:11:37 1534
   467  6.3206e-03  1.4958e-02  6.5304e-03  4.8631e+00  6.3141e-03  0:09:17 1533
   468  6.3645e-03  1.5138e-02  6.5918e-03  5.1000e+00  6.3582e-03  0:07:25 1532
   469  6.5160e-03  1.5364e-02  6.6359e-03  5.3550e+00  6.5099e-03  0:05:56 1531
   470  6.7569e-03  1.5758e-02  6.6976e-03  5.5974e+00  6.7512e-03  0:09:51 1530
   471  6.9825e-03  1.6264e-02  6.7466e-03  5.7912e+00  6.9771e-03  0:07:52 1529
   472  7.1242e-03  1.6598e-02  6.8170e-03  5.9629e+00  7.1189e-03  0:06:17 1528
   473  7.2186e-03  1.6400e-02  6.8992e-03  6.1197e+00  7.2130e-03  0:10:07 1527

  iter  continuity  x-velocity  y-velocity  z-velocity      energy     time/iter
   474  7.4266e-03  1.6512e-02  6.9647e-03  6.2731e+00  7.4209e-03  0:08:05 1526
   475  7.6533e-03  1.6717e-02  6.9870e-03  6.4304e+00  7.6476e-03  0:06:28 1525
   476  7.9160e-03  1.6869e-02  7.0169e-03  6.6846e+00  7.9105e-03  0:10:15 1524
   477  7.8148e-03  1.6597e-02  7.0723e-03  6.9122e+00  7.8090e-03  0:08:12 1523
   478  7.7110e-03  1.6266e-02  7.1503e-03  7.1260e+00  7.7049e-03  0:06:33 1522
   479  7.6957e-03  1.6219e-02  7.2027e-03  7.3279e+00  7.6893e-03  0:10:18 1521
   480  7.8065e-03  1.6378e-02  7.2238e-03  7.4851e+00  7.8001e-03  0:08:14 1520
   481  7.9442e-03  1.6582e-02  7.2061e-03  7.6258e+00  7.9380e-03  0:06:35 1519
   482  8.0464e-03  1.6806e-02  7.2026e-03  7.7472e+00  8.0405e-03  0:10:20 1518
   483  8.0413e-03  1.6784e-02  7.2129e-03  7.8567e+00  8.0354e-03  0:08:15 1517
   484  8.0001e-03  1.6875e-02  7.2200e-03  8.0125e+00  7.9941e-03  0:06:36 1516

  iter  continuity  x-velocity  y-velocity  z-velocity      energy     time/iter
   485  7.9708e-03  1.6779e-02  7.2057e-03  8.3149e+00  7.9646e-03  0:10:20 1515
   486  8.0250e-03  1.6566e-02  7.2067e-03  8.6260e+00  8.0189e-03  0:08:15 1514
   487  8.0968e-03  1.6658e-02  7.1725e-03  8.8723e+00  8.0908e-03  0:06:36 1513
   488  8.1348e-03  1.6773e-02  7.1492e-03  9.1302e+00  8.1291e-03  0:10:19 1512
   489  8.1507e-03  1.7024e-02  7.1197e-03  9.3859e+00  8.1451e-03  0:08:15 1511
   490  8.1664e-03  1.7266e-02  7.0863e-03  9.6486e+00  8.1607e-03  0:06:36 1510
   491  8.1997e-03  1.7581e-02  7.0663e-03  9.9805e+00  8.1940e-03  0:10:18 1509
   492  8.2853e-03  1.7970e-02  7.0396e-03  1.0505e+01  8.2797e-03  0:08:14 1508
   493  8.3965e-03  1.8315e-02  7.0090e-03  1.0991e+01  8.3907e-03  0:06:35 1507
   494  8.5430e-03  1.8581e-02  6.9854e-03  1.1451e+01  8.5370e-03  0:10:17 1506
   495  8.6350e-03  1.8507e-02  6.9867e-03  1.1895e+01  8.6285e-03  0:08:13 1505

  iter  continuity  x-velocity  y-velocity  z-velocity      energy     time/iter
   496  8.7254e-03  1.8493e-02  7.0141e-03  1.2367e+01  8.7185e-03  0:06:34 1504
   497  8.8320e-03  1.8686e-02  7.0157e-03  1.2961e+01  8.8246e-03  0:10:16 1503
   498  8.9941e-03  1.8927e-02  7.0457e-03  1.3718e+01  8.9863e-03  0:08:12 1502
   499  9.2264e-03  1.9363e-02  7.1250e-03  1.4972e+01  9.2180e-03  0:06:34 1501
   500  9.5121e-03  1.9949e-02  7.2209e-03  1.6486e+01  9.5035e-03  0:10:15 1500
   501  9.8445e-03  2.0583e-02  7.3667e-03  1.8050e+01  9.8357e-03  0:08:11 1499
   502  1.0255e-02  2.1333e-02  7.4653e-03  1.9609e+01  1.0246e-02  0:06:33 1498
   503  1.0650e-02  2.2129e-02  7.5576e-03  2.1129e+01  1.0641e-02  0:10:14 1497
   504  1.1054e-02  2.3003e-02  7.7343e-03  2.3008e+01  1.1045e-02  0:08:10 1496
   505  1.1504e-02  2.3931e-02  7.9601e-03  2.5269e+01  1.1495e-02  0:06:32 1495
   506  1.1945e-02  2.4713e-02  8.0797e-03  2.7276e+01  1.1937e-02  0:05:13 1494

  iter  continuity  x-velocity  y-velocity  z-velocity      energy     time/iter
   507  1.2320e-02  2.5317e-02  8.1903e-03  2.9066e+01  1.2313e-02  0:09:09 1493
   508  1.2648e-02  2.5770e-02  8.3317e-03  3.1158e+01  1.2641e-02  0:07:19 1492
   509  1.2984e-02  2.6355e-02  8.5037e-03  3.3300e+01  1.2977e-02  0:05:51 1491
   510  1.3287e-02  2.7059e-02  8.4803e-03  3.4775e+01  1.3280e-02  0:09:39 1490
   511  1.3439e-02  2.7522e-02  8.4660e-03  3.6036e+01  1.3433e-02  0:07:43 1489
   512  1.3509e-02  2.7771e-02  8.4952e-03  3.7620e+01  1.3503e-02  0:06:10 1488
   513  1.3503e-02  2.7860e-02  8.5210e-03  3.8487e+01  1.3497e-02  0:09:53 1487
   514  1.3425e-02  2.7901e-02  8.4921e-03  3.8676e+01  1.3420e-02  0:07:54 1486
   515  1.3282e-02  2.7732e-02  8.5074e-03  3.8962e+01  1.3277e-02  0:06:19 1485
   516  1.3132e-02  2.7592e-02  8.5432e-03  3.9360e+01  1.3127e-02  0:10:00 1484
   517  1.2995e-02  2.7543e-02  8.5434e-03  3.9420e+01  1.2990e-02  0:08:00 1483

  iter  continuity  x-velocity  y-velocity  z-velocity      energy     time/iter
   518  1.2923e-02  2.7575e-02  8.6037e-03  4.0092e+01  1.2918e-02  0:06:23 1482
   519  1.3048e-02  2.7789e-02  8.7298e-03  4.2281e+01  1.3042e-02  0:10:03 1481
   520  1.3390e-02  2.8439e-02  8.8335e-03  4.5196e+01  1.3383e-02  0:08:02 1480
   521  1.3802e-02  2.9108e-02  8.8131e-03  4.9292e+01  1.3795e-02  0:06:25 1479
   522  1.4212e-02  2.9636e-02  8.7979e-03  5.4961e+01  1.4204e-02  0:10:04 1478
   523  1.4440e-02  2.9791e-02  8.7756e-03  6.1333e+01  1.4432e-02  0:08:03 1477
   524  1.4456e-02  2.9617e-02  8.8998e-03  6.7800e+01  1.4450e-02  0:06:26 1476
   525  1.4348e-02  2.9327e-02  9.2045e-03  7.4099e+01  1.4342e-02  0:10:03 1475
   526  1.4158e-02  2.9119e-02  9.7911e-03  7.9281e+01  1.4154e-02  0:08:02 1474
   527  1.3895e-02  2.9148e-02  1.0685e-02  8.2687e+01  1.3891e-02  0:11:20 1473
   528  1.3546e-02  2.9356e-02  1.1812e-02  8.3379e+01  1.3543e-02  0:09:04 1472

  iter  continuity  x-velocity  y-velocity  z-velocity      energy     time/iter
   529  1.3141e-02  2.9828e-02  1.2959e-02  8.0736e+01  1.3138e-02  0:07:15 1471
   530  1.2697e-02  3.0291e-02  1.4156e-02  7.5157e+01  1.2693e-02  0:10:42 1470
   531  1.2160e-02  3.0608e-02  1.5048e-02  6.5836e+01  1.2155e-02  0:08:33 1469
   532  1.1617e-02  3.0486e-02  1.5492e-02  5.5976e+01  1.1611e-02  0:06:50 1468
   533  1.1101e-02  3.0122e-02  1.5471e-02  4.7331e+01  1.1094e-02  0:10:21 1467
   534  1.0593e-02  2.9595e-02  1.4966e-02  4.1867e+01  1.0585e-02  0:08:17 1466
   535  1.0180e-02  2.8785e-02  1.4112e-02  3.9514e+01  1.0171e-02  0:06:37 1465
   536  9.7829e-03  2.7608e-02  1.3060e-02  3.7663e+01  9.7743e-03  0:10:10 1464
   537  9.4362e-03  2.6290e-02  1.2015e-02  3.5718e+01  9.4278e-03  0:08:08 1463
   538  9.0312e-03  2.4799e-02  1.1029e-02  3.3294e+01  9.0231e-03  0:06:30 1462
   539  8.6723e-03  2.3420e-02  1.0120e-02  3.0728e+01  8.6643e-03  0:10:04 1461

  iter  continuity  x-velocity  y-velocity  z-velocity      energy     time/iter
   540  8.3894e-03  2.2178e-02  9.3135e-03  2.8208e+01  8.3816e-03  0:08:03 1460
   541  8.2372e-03  2.1260e-02  8.5826e-03  2.6199e+01  8.2297e-03  0:06:26 1459
   542  8.0721e-03  2.0288e-02  7.9629e-03  2.5107e+01  8.0649e-03  0:10:00 1458
   543  7.8277e-03  1.9264e-02  7.4680e-03  2.4899e+01  7.8207e-03  0:08:00 1457
   544  7.4972e-03  1.8272e-02  7.1067e-03  2.5287e+01  7.4902e-03  0:06:24 1456
   545  7.1330e-03  1.7313e-02  6.8047e-03  2.6065e+01  7.1259e-03  0:09:58 1455
   546  6.8334e-03  1.6451e-02  6.5831e-03  2.6998e+01  6.8260e-03  0:07:58 1454
   547  6.6018e-03  1.5497e-02  6.4034e-03  2.7834e+01  6.5935e-03  0:06:22 1453
   548  6.4368e-03  1.4918e-02  6.2335e-03  2.8478e+01  6.4277e-03  0:09:56 1452
   549  6.2877e-03  1.4551e-02  6.0403e-03  2.8785e+01  6.2778e-03  0:07:56 1451
   550  6.0899e-03  1.4240e-02  5.8802e-03  2.8436e+01  6.0791e-03  0:11:11 1450

  iter  continuity  x-velocity  y-velocity  z-velocity      energy     time/iter
   551  5.8385e-03  1.3948e-02  5.7735e-03  2.7524e+01  5.8268e-03  0:08:56 1449
   552  5.5843e-03  1.3664e-02  5.6936e-03  2.6244e+01  5.5715e-03  0:07:09 1448
   553  5.3761e-03  1.3435e-02  5.6287e-03  2.4967e+01  5.3621e-03  0:10:32 1447
   554  5.2630e-03  1.3203e-02  5.5726e-03  2.4088e+01  5.2479e-03  0:08:25 1446
   555  5.2959e-03  1.3259e-02  5.5022e-03  2.3870e+01  5.2802e-03  0:06:44 1445
   556  5.4467e-03  1.3472e-02  5.4139e-03  2.4210e+01  5.4307e-03  0:10:12 1444
   557  5.6653e-03  1.3887e-02  5.2925e-03  2.4927e+01  5.6494e-03  0:08:09 1443
   558  5.8759e-03  1.4397e-02  5.1598e-03  2.5897e+01  5.8600e-03  0:06:31 1442
   559  6.0473e-03  1.4881e-02  5.0506e-03  2.6633e+01  6.0317e-03  0:10:01 1441
   560  6.1845e-03  1.5393e-02  4.9870e-03  2.7305e+01  6.1690e-03  0:08:00 1440
   561  6.2906e-03  1.5905e-02  4.9801e-03  2.7933e+01  6.2752e-03  0:06:24 1439

  iter  continuity  x-velocity  y-velocity  z-velocity      energy     time/iter
   562  6.3779e-03  1.6391e-02  5.0402e-03  2.8785e+01  6.3626e-03  0:09:55 1438
   563  6.4394e-03  1.6827e-02  5.1486e-03  2.9737e+01  6.4241e-03  0:07:55 1437
   564  6.4433e-03  1.7049e-02  5.3117e-03  3.0419e+01  6.4279e-03  0:06:20 1436
   565  6.4138e-03  1.7398e-02  5.4215e-03  3.0348e+01  6.3980e-03  0:09:51 1435
   566  6.3539e-03  1.7697e-02  5.5199e-03  2.9555e+01  6.3378e-03  0:07:52 1434
   567  6.3006e-03  1.7927e-02  5.5952e-03  2.8453e+01  6.2841e-03  0:06:18 1433
   568  6.2257e-03  1.7971e-02  5.6789e-03  2.7005e+01  6.2085e-03  0:09:48 1432
   569  6.1765e-03  1.7870e-02  5.7532e-03  2.5595e+01  6.1587e-03  0:07:50 1431
   570  6.2297e-03  1.7697e-02  5.8380e-03  2.4536e+01  6.2114e-03  0:06:16 1430
   571  6.4168e-03  1.7468e-02  5.9342e-03  2.3936e+01  6.3982e-03  0:09:46 1429
   572  6.7346e-03  1.7189e-02  6.0236e-03  2.3883e+01  6.7161e-03  0:07:49 1428

  iter  continuity  x-velocity  y-velocity  z-velocity      energy     time/iter
   573  7.0953e-03  1.6916e-02  6.1067e-03  2.4387e+01  7.0771e-03  0:06:15 1427
   574  7.4363e-03  1.6628e-02  6.1445e-03  2.5272e+01  7.4183e-03  0:09:45 1426
   575  7.7005e-03  1.6295e-02  6.1978e-03  2.6082e+01  7.6828e-03  0:07:47 1425
   576  7.7980e-03  1.5870e-02  6.2846e-03  2.6577e+01  7.7803e-03  0:06:14 1424
   577  7.7132e-03  1.5422e-02  6.3866e-03  2.6669e+01  7.6950e-03  0:09:43 1423
   578  7.5840e-03  1.4965e-02  6.5033e-03  2.6232e+01  7.5652e-03  0:07:46 1422
   579  7.4171e-03  1.4583e-02  6.6402e-03  2.5315e+01  7.3974e-03  0:06:13 1421
   580  7.1754e-03  1.4282e-02  6.7646e-03  2.3853e+01  7.1547e-03  0:09:42 1420
   581  6.9296e-03  1.4071e-02  6.8951e-03  2.2447e+01  6.9081e-03  0:07:45 1419
   582  6.6798e-03  1.3896e-02  7.0244e-03  2.1420e+01  6.6576e-03  0:06:12 1418
   583  6.4678e-03  1.3632e-02  7.1681e-03  2.1119e+01  6.4451e-03  0:09:41 1417

  iter  continuity  x-velocity  y-velocity  z-velocity      energy     time/iter
   584  6.3294e-03  1.3469e-02  7.2933e-03  2.1685e+01  6.3067e-03  0:07:44 1416
   585  6.2737e-03  1.3334e-02  7.4159e-03  2.3050e+01  6.2515e-03  0:10:54 1415
   586  6.3654e-03  1.3355e-02  7.5570e-03  2.4727e+01  6.3444e-03  0:08:43 1414
   587  6.4498e-03  1.3562e-02  7.6957e-03  2.6216e+01  6.4299e-03  0:06:58 1413
   588  6.5412e-03  1.3808e-02  7.7997e-03  2.7197e+01  6.5224e-03  0:10:17 1412
   589  6.5862e-03  1.4007e-02  7.9315e-03  2.7904e+01  6.5683e-03  0:08:13 1411
   590  6.5303e-03  1.4095e-02  8.0909e-03  2.8676e+01  6.5129e-03  0:06:34 1410
   591  6.3669e-03  1.4107e-02  8.2847e-03  2.9525e+01  6.3494e-03  0:09:57 1409
   592  6.1895e-03  1.4039e-02  8.5067e-03  3.0478e+01  6.1717e-03  0:07:57 1408
   593  6.0675e-03  1.3977e-02  8.7174e-03  3.1738e+01  6.0495e-03  0:06:21 1407
   594  6.0190e-03  1.3839e-02  8.9271e-03  3.2949e+01  6.0011e-03  0:09:46 1406

  iter  continuity  x-velocity  y-velocity  z-velocity      energy     time/iter
   595  6.0628e-03  1.3624e-02  9.1372e-03  3.4333e+01  6.0453e-03  0:07:49 1405
   596  6.1422e-03  1.3382e-02  9.3505e-03  3.5747e+01  6.1253e-03  0:06:15 1404
   597  6.2342e-03  1.3126e-02  9.5593e-03  3.7009e+01  6.2179e-03  0:09:40 1403
   598  6.3108e-03  1.2930e-02  9.7599e-03  3.7533e+01  6.2949e-03  0:07:44 1402
   599  6.3840e-03  1.2765e-02  9.9560e-03  3.7837e+01  6.3686e-03  0:10:51 1401
   600  6.4811e-03  1.2671e-02  1.0145e-02  3.7535e+01  6.4662e-03  0:08:40 1400
   601  6.4543e-03  1.2639e-02  1.0317e-02  3.7124e+01  6.4395e-03  0:06:56 1399
   602  6.3379e-03  1.2599e-02  1.0468e-02  3.6624e+01  6.3228e-03  0:10:12 1398
   603  6.2471e-03  1.2582e-02  1.0597e-02  3.6415e+01  6.2319e-03  0:08:09 1397
   604  6.1867e-03  1.2703e-02  1.0709e-02  3.6685e+01  6.1716e-03  0:06:31 1396
   605  6.1564e-03  1.2956e-02  1.0811e-02  3.7263e+01  6.1415e-03  0:09:52 1395

  iter  continuity  x-velocity  y-velocity  z-velocity      energy     time/iter
   606  6.1500e-03  1.3283e-02  1.0919e-02  3.8367e+01  6.1354e-03  0:07:53 1394
   607  6.1696e-03  1.3624e-02  1.1053e-02  3.9749e+01  6.1553e-03  0:06:18 1393
   608  6.2263e-03  1.4088e-02  1.1198e-02  4.1290e+01  6.2125e-03  0:09:41 1392
   609  6.3170e-03  1.4599e-02  1.1356e-02  4.3013e+01  6.3035e-03  0:07:44 1391
   610  6.3997e-03  1.5149e-02  1.1512e-02  4.4676e+01  6.3864e-03  0:06:11 1390
   611  6.5498e-03  1.5709e-02  1.1641e-02  4.6550e+01  6.5369e-03  0:09:34 1389
   612  6.7754e-03  1.6262e-02  1.1741e-02  4.8556e+01  6.7628e-03  0:07:39 1388
   613  6.9435e-03  1.6733e-02  1.1810e-02  5.1098e+01  6.9310e-03  0:06:07 1387
   614  7.1872e-03  1.7131e-02  1.1848e-02  5.4106e+01  7.1750e-03  0:09:31 1386
   615  7.3925e-03  1.7352e-02  1.1876e-02  5.7717e+01  7.3804e-03  0:07:36 1385
   616  7.6133e-03  1.7452e-02  1.1879e-02  6.1994e+01  7.6013e-03  0:06:05 1384

  iter  continuity  x-velocity  y-velocity  z-velocity      energy     time/iter
   617  7.6843e-03  1.7426e-02  1.1862e-02  6.6636e+01  7.6720e-03  0:09:28 1383
   618  7.6984e-03  1.7342e-02  1.1826e-02  7.2290e+01  7.6860e-03  0:07:34 1382
   619  7.7061e-03  1.7234e-02  1.1779e-02  7.8334e+01  7.6936e-03  0:06:03 1381
   620  7.6403e-03  1.7041e-02  1.1721e-02  8.3715e+01  7.6277e-03  0:09:26 1380
   621  7.5860e-03  1.6923e-02  1.1657e-02  8.9002e+01  7.5733e-03  0:07:33 1379
   622  7.4916e-03  1.6870e-02  1.1586e-02  9.2589e+01  7.4787e-03  0:06:02 1378
   623  7.4297e-03  1.6856e-02  1.1518e-02  9.5701e+01  7.4166e-03  0:09:25 1377
   624  7.4423e-03  1.6930e-02  1.1454e-02  9.8601e+01  7.4292e-03  0:07:31 1376
   625  7.5393e-03  1.7120e-02  1.1411e-02  1.0081e+02  7.5261e-03  0:06:01 1375
   626  7.8268e-03  1.7566e-02  1.1409e-02  1.0408e+02  7.8139e-03  0:09:23 1374
   627  8.3097e-03  1.8318e-02  1.1456e-02  1.0811e+02  8.2973e-03  0:07:30 1373

  iter  continuity  x-velocity  y-velocity  z-velocity      energy     time/iter
   628  8.8922e-03  1.9297e-02  1.1599e-02  1.1396e+02  8.8806e-03  0:06:00 1372
   629  9.4698e-03  2.0340e-02  1.1878e-02  1.2123e+02  9.4592e-03  0:09:22 1371
   630  9.8833e-03  2.1282e-02  1.2379e-02  1.2743e+02  9.8735e-03  0:07:29 1370
   631  1.0098e-02  2.2168e-02  1.3125e-02  1.2814e+02  1.0089e-02  0:10:33 1369
   632  1.0229e-02  2.3000e-02  1.3999e-02  1.2403e+02  1.0220e-02  0:08:26 1368
   633  1.0210e-02  2.3748e-02  1.4838e-02  1.1594e+02  1.0201e-02  0:06:44 1367
   634  1.0092e-02  2.4276e-02  1.5479e-02  1.0598e+02  1.0082e-02  0:09:57 1366
   635  1.0020e-02  2.4603e-02  1.5701e-02  9.7183e+01  1.0009e-02  0:07:57 1365
   636  9.9802e-03  2.4721e-02  1.5532e-02  9.0822e+01  9.9681e-03  0:06:21 1364
   637  1.0136e-02  2.4698e-02  1.5115e-02  8.6802e+01  1.0123e-02  0:09:37 1363
   638  1.0316e-02  2.4422e-02  1.4533e-02  8.2690e+01  1.0303e-02  0:07:42 1362

  iter  continuity  x-velocity  y-velocity  z-velocity      energy     time/iter
   639  1.0480e-02  2.3801e-02  1.3843e-02  7.7938e+01  1.0466e-02  0:06:09 1361
   640  1.0672e-02  2.2909e-02  1.3161e-02  7.2791e+01  1.0658e-02  0:09:27 1360
   641  1.0918e-02  2.1846e-02  1.2564e-02  6.7933e+01  1.0904e-02  0:07:33 1359
   642  1.1204e-02  2.0770e-02  1.2016e-02  6.3881e+01  1.1190e-02  0:06:02 1358
   643  1.1544e-02  1.9662e-02  1.1575e-02  6.1219e+01  1.1531e-02  0:09:21 1357
   644  1.2007e-02  1.8891e-02  1.1159e-02  5.9575e+01  1.1995e-02  0:07:29 1356
   645  1.2462e-02  1.8297e-02  1.0806e-02  5.8179e+01  1.2450e-02  0:05:59 1355
   646  1.2809e-02  1.7651e-02  1.0488e-02  5.6412e+01  1.2797e-02  0:09:17 1354
   647  1.3067e-02  1.7074e-02  1.0203e-02  5.4121e+01  1.3055e-02  0:07:26 1353
   648  1.3280e-02  1.6502e-02  9.9125e-03  5.1677e+01  1.3269e-02  0:05:56 1352
   649  1.3487e-02  1.6032e-02  9.6335e-03  5.0072e+01  1.3476e-02  0:09:15 1351

  iter  continuity  x-velocity  y-velocity  z-velocity      energy     time/iter
   650  1.3679e-02  1.5589e-02  9.3992e-03  5.0297e+01  1.3668e-02  0:07:24 1350
   651  1.3865e-02  1.5212e-02  9.1517e-03  5.1011e+01  1.3854e-02  0:05:55 1349
   652  1.4019e-02  1.4895e-02  8.9230e-03  5.3450e+01  1.4008e-02  0:09:13 1348
   653  1.4121e-02  1.4582e-02  8.6949e-03  5.6321e+01  1.4111e-02  0:07:22 1347
   654  1.4151e-02  1.4319e-02  8.4629e-03  5.8141e+01  1.4141e-02  0:05:53 1346
   655  1.4138e-02  1.4135e-02  8.2280e-03  5.8703e+01  1.4128e-02  0:09:12 1345
   656  1.4101e-02  1.4054e-02  7.9727e-03  5.9637e+01  1.4092e-02  0:07:21 1344
   657  1.4049e-02  1.4039e-02  7.7294e-03  6.1755e+01  1.4039e-02  0:05:52 1343
   658  1.3972e-02  1.4056e-02  7.4985e-03  6.6044e+01  1.3963e-02  0:09:10 1342
   659  1.3868e-02  1.4091e-02  7.2995e-03  7.1632e+01  1.3859e-02  0:07:20 1341
   660  1.3726e-02  1.4106e-02  7.1543e-03  7.8006e+01  1.3717e-02  0:10:20 1340

  iter  continuity  x-velocity  y-velocity  z-velocity      energy     time/iter
   661  1.3542e-02  1.4095e-02  7.0643e-03  8.4310e+01  1.3533e-02  0:08:15 1339
   662  1.3320e-02  1.4137e-02  7.0085e-03  8.9341e+01  1.3311e-02  0:06:36 1338
   663  1.3066e-02  1.4255e-02  6.9762e-03  9.3033e+01  1.3058e-02  0:09:44 1337
   664  1.2783e-02  1.4449e-02  6.9698e-03  9.4443e+01  1.2775e-02  0:07:47 1336
   665  1.2483e-02  1.4694e-02  6.9949e-03  9.3578e+01  1.2475e-02  0:06:13 1335
   666  1.2131e-02  1.5014e-02  7.0467e-03  9.0101e+01  1.2124e-02  0:09:25 1334
   667  1.1750e-02  1.5371e-02  7.1295e-03  8.4792e+01  1.1743e-02  0:07:32 1333
   668  1.1353e-02  1.5788e-02  7.2399e-03  7.8694e+01  1.1345e-02  0:06:01 1332
   669  1.0943e-02  1.6214e-02  7.3733e-03  7.3338e+01  1.0935e-02  0:09:15 1331
   670  1.0516e-02  1.6591e-02  7.5192e-03  6.9159e+01  1.0509e-02  0:07:24 1330
   671  1.0069e-02  1.6921e-02  7.6702e-03  6.8018e+01  1.0062e-02  0:05:55 1329

  iter  continuity  x-velocity  y-velocity  z-velocity      energy     time/iter
   672  9.6137e-03  1.7185e-02  7.8176e-03  7.1052e+01  9.6071e-03  0:09:09 1328
   673  9.1621e-03  1.7384e-02  7.9532e-03  7.7343e+01  9.1558e-03  0:07:19 1327
   674  8.7286e-03  1.7492e-02  8.0813e-03  8.6000e+01  8.7227e-03  0:05:51 1326
   675  8.3233e-03  1.7573e-02  8.1882e-03  9.5675e+01  8.3178e-03  0:09:05 1325
   676  7.9272e-03  1.7593e-02  8.2795e-03  1.0452e+02  7.9223e-03  0:07:16 1324
   677  7.5202e-03  1.7564e-02  8.3737e-03  1.1172e+02  7.5159e-03  0:05:49 1323
   678  7.1232e-03  1.7520e-02  8.4775e-03  1.1767e+02  7.1197e-03  0:09:03 1322
   679  6.7164e-03  1.7494e-02  8.5947e-03  1.1967e+02  6.7135e-03  0:07:14 1321
   680  6.3567e-03  1.7521e-02  8.7374e-03  1.1783e+02  6.3546e-03  0:05:47 1320
   681  6.0817e-03  1.7611e-02  8.9102e-03  1.1448e+02  6.0804e-03  0:09:01 1319
   682  5.9652e-03  1.7763e-02  9.0718e-03  1.1199e+02  5.9649e-03  0:07:13 1318

  iter  continuity  x-velocity  y-velocity  z-velocity      energy     time/iter
   683  6.0700e-03  1.8018e-02  9.2459e-03  1.0985e+02  6.0708e-03  0:10:09 1317
   684  6.4184e-03  1.8393e-02  9.4325e-03  1.1043e+02  6.4204e-03  0:08:07 1316
   685  6.9344e-03  1.8833e-02  9.6077e-03  1.1429e+02  6.9375e-03  0:06:29 1315
   686  7.5734e-03  1.9190e-02  9.7746e-03  1.2008e+02  7.5777e-03  0:09:34 1314
   687  8.2224e-03  1.9500e-02  9.9270e-03  1.2700e+02  8.2278e-03  0:07:39 1313
   688  8.7627e-03  1.9773e-02  1.0058e-02  1.3387e+02  8.7691e-03  0:06:07 1312
   689  9.1639e-03  1.9945e-02  1.0176e-02  1.3876e+02  9.1710e-03  0:09:15 1311
   690  9.3861e-03  2.0059e-02  1.0286e-02  1.4215e+02  9.3934e-03  0:07:24 1310
   691  9.4716e-03  2.0114e-02  1.0430e-02  1.4313e+02  9.4786e-03  0:05:55 1309
   692  9.4871e-03  2.0126e-02  1.0567e-02  1.4125e+02  9.4932e-03  0:09:05 1308
   693  9.5345e-03  2.0188e-02  1.0632e-02  1.3736e+02  9.5396e-03  0:07:16 1307

  iter  continuity  x-velocity  y-velocity  z-velocity      energy     time/iter
   694  9.6619e-03  2.0246e-02  1.0597e-02  1.3331e+02  9.6662e-03  0:05:48 1306
   695  9.8144e-03  2.0157e-02  1.0470e-02  1.3042e+02  9.8183e-03  0:09:00 1305
   696  9.9352e-03  1.9943e-02  1.0243e-02  1.2773e+02  9.9392e-03  0:07:11 1304
   697  9.9904e-03  1.9594e-02  9.9296e-03  1.2549e+02  9.9947e-03  0:10:05 1303
   698  9.9678e-03  1.9156e-02  9.5763e-03  1.2324e+02  9.9727e-03  0:08:04 1302
   699  9.9084e-03  1.8676e-02  9.2461e-03  1.2172e+02  9.9138e-03  0:06:27 1301
   700  9.8480e-03  1.8308e-02  9.0002e-03  1.2002e+02  9.8539e-03  0:09:29 1300
   701  9.8331e-03  1.8157e-02  8.8477e-03  1.1990e+02  9.8392e-03  0:07:35 1299
   702  9.8376e-03  1.8246e-02  8.7708e-03  1.2138e+02  9.8439e-03  0:06:04 1298
   703  9.7976e-03  1.8534e-02  8.7580e-03  1.2282e+02  9.8040e-03  0:09:10 1297
   704  9.6670e-03  1.8853e-02  8.7666e-03  1.2357e+02  9.6734e-03  0:07:20 1296

  iter  continuity  x-velocity  y-velocity  z-velocity      energy     time/iter
   705  9.4161e-03  1.9115e-02  8.7658e-03  1.2283e+02  9.4224e-03  0:05:52 1295
   706  9.1070e-03  1.9337e-02  8.7300e-03  1.2003e+02  9.1133e-03  0:09:00 1294
   707  8.8036e-03  1.9496e-02  8.6405e-03  1.1769e+02  8.8100e-03  0:07:12 1293
   708  8.4993e-03  1.9568e-02  8.4916e-03  1.1501e+02  8.5058e-03  0:05:45 1292
   709  8.2635e-03  1.9581e-02  8.2873e-03  1.1399e+02  8.2702e-03  0:08:54 1291
   710  8.1326e-03  1.9575e-02  8.0270e-03  1.1624e+02  8.1395e-03  0:07:07 1290
   711  8.0537e-03  1.9556e-02  7.7515e-03  1.1995e+02  8.0607e-03  0:05:41 1289
   712  7.9275e-03  1.9472e-02  7.4721e-03  1.2214e+02  7.9346e-03  0:08:50 1288
   713  7.7061e-03  1.9357e-02  7.2044e-03  1.2123e+02  7.7131e-03  0:07:04 1287
   714  7.4163e-03  1.9169e-02  6.9687e-03  1.1726e+02  7.4232e-03  0:05:39 1286
   715  7.0407e-03  1.8889e-02  6.7562e-03  1.1207e+02  7.0474e-03  0:08:48 1285

  iter  continuity  x-velocity  y-velocity  z-velocity      energy     time/iter
   716  6.5897e-03  1.8486e-02  6.5696e-03  1.0582e+02  6.5963e-03  0:07:02 1284
   717  6.1314e-03  1.7989e-02  6.3987e-03  9.9062e+01  6.1378e-03  0:05:37 1283
   718  5.7154e-03  1.7409e-02  6.2372e-03  9.2414e+01  5.7216e-03  0:08:46 1282
   719  5.4538e-03  1.6836e-02  6.0843e-03  8.7698e+01  5.4598e-03  0:07:01 1281
   720  5.2095e-03  1.6288e-02  5.9391e-03  8.5141e+01  5.2152e-03  0:05:36 1280
   721  5.1706e-03  1.5739e-02  5.8206e-03  8.8130e+01  5.1760e-03  0:08:45 1279
   722  5.4369e-03  1.5274e-02  5.7157e-03  9.6569e+01  5.4421e-03  0:06:59 1278
   723  5.8844e-03  1.4916e-02  5.6116e-03  1.0121e+02  5.8896e-03  0:05:35 1277
   724  6.2526e-03  1.4618e-02  5.5116e-03  9.8476e+01  6.2577e-03  0:08:43 1276
   725  6.4021e-03  1.4350e-02  5.4278e-03  9.5183e+01  6.4069e-03  0:06:58 1275
   726  6.4632e-03  1.4157e-02  5.3545e-03  9.3665e+01  6.4676e-03  0:05:34 1274

  iter  continuity  x-velocity  y-velocity  z-velocity      energy     time/iter
   727  6.4516e-03  1.4019e-02  5.2908e-03  9.0395e+01  6.4555e-03  0:08:42 1273
   728  6.4404e-03  1.3917e-02  5.2222e-03  8.5558e+01  6.4438e-03  0:06:57 1272
   729  6.5124e-03  1.3834e-02  5.1633e-03  8.1896e+01  6.5153e-03  0:05:33 1271
   730  6.6158e-03  1.3710e-02  5.1187e-03  7.9932e+01  6.6184e-03  0:08:41 1270
   731  6.7795e-03  1.3580e-02  5.0853e-03  7.9914e+01  6.7819e-03  0:06:56 1269
   732  6.9531e-03  1.3471e-02  5.0482e-03  8.2927e+01  6.9554e-03  0:09:46 1268
   733  7.2041e-03  1.3381e-02  5.0092e-03  9.0079e+01  7.2064e-03  0:07:49 1267
   734  7.4497e-03  1.3305e-02  4.9665e-03  1.0046e+02  7.4522e-03  0:06:15 1266
   735  7.7619e-03  1.3250e-02  4.9107e-03  1.1188e+02  7.7647e-03  0:09:12 1265
   736  8.0399e-03  1.3230e-02  4.8491e-03  1.2043e+02  8.0430e-03  0:07:22 1264
   737  8.1189e-03  1.3230e-02  4.7967e-03  1.2313e+02  8.1222e-03  0:05:53 1263

  iter  continuity  x-velocity  y-velocity  z-velocity      energy     time/iter
   738  8.0048e-03  1.3211e-02  4.7341e-03  1.2001e+02  8.0081e-03  0:08:55 1262
   739  7.7455e-03  1.3160e-02  4.6818e-03  1.1157e+02  7.7485e-03  0:07:07 1261
   740  7.4309e-03  1.3098e-02  4.6406e-03  1.0486e+02  7.4336e-03  0:05:42 1260
   741  7.0073e-03  1.2989e-02  4.6103e-03  9.8624e+01  7.0094e-03  0:08:45 1259
   742  6.5294e-03  1.2891e-02  4.5953e-03  9.3730e+01  6.5308e-03  0:07:00 1258
   743  6.0458e-03  1.2860e-02  4.5895e-03  9.2013e+01  6.0466e-03  0:05:35 1257
   744  5.6749e-03  1.2886e-02  4.6002e-03  9.4400e+01  5.6749e-03  0:08:39 1256
   745  5.5000e-03  1.2971e-02  4.6338e-03  9.9451e+01  5.4994e-03  0:06:55 1255
   746  5.5792e-03  1.3105e-02  4.6862e-03  1.0607e+02  5.5785e-03  0:05:32 1254
   747  5.8954e-03  1.3265e-02  4.7816e-03  1.1385e+02  5.8947e-03  0:08:36 1253
   748  6.3217e-03  1.3478e-02  4.8541e-03  1.2180e+02  6.3212e-03  0:06:52 1252

  iter  continuity  x-velocity  y-velocity  z-velocity      energy     time/iter
   749  6.7445e-03  1.3727e-02  4.8970e-03  1.2888e+02  6.7441e-03  0:05:30 1251
   750  7.1475e-03  1.3929e-02  4.8789e-03  1.3456e+02  7.1472e-03  0:08:33 1250
   751  7.4542e-03  1.4022e-02  4.8272e-03  1.3664e+02  7.4537e-03  0:06:50 1249
   752  7.7743e-03  1.4068e-02  4.7544e-03  1.3584e+02  7.7737e-03  0:05:28 1248
   753  8.0596e-03  1.3984e-02  4.6059e-03  1.2964e+02  8.0588e-03  0:08:32 1247
   754  8.2951e-03  1.3773e-02  4.4711e-03  1.1789e+02  8.2940e-03  0:06:49 1246
   755  8.5523e-03  1.3498e-02  4.3505e-03  1.0851e+02  8.5508e-03  0:05:27 1245
   756  8.7827e-03  1.3209e-02  4.2516e-03  9.8368e+01  8.7808e-03  0:08:30 1244
   757  8.9920e-03  1.2938e-02  4.1672e-03  9.0343e+01  8.9899e-03  0:06:48 1243
   758  9.1989e-03  1.2695e-02  4.0872e-03  8.7395e+01  9.1964e-03  0:05:26 1242
   759  9.3940e-03  1.2451e-02  4.0082e-03  8.6538e+01  9.3913e-03  0:08:29 1241

  iter  continuity  x-velocity  y-velocity  z-velocity      energy     time/iter
   760  9.5736e-03  1.2232e-02  3.8887e-03  8.7561e+01  9.5709e-03  0:06:47 1240
   761  9.7085e-03  1.1980e-02  3.7429e-03  8.8079e+01  9.7057e-03  0:05:25 1239
   762  9.7913e-03  1.1671e-02  3.5874e-03  8.7518e+01  9.7885e-03  0:08:27 1238
   763  9.8240e-03  1.1379e-02  3.4450e-03  8.7082e+01  9.8210e-03  0:06:46 1237
   764  9.7722e-03  1.1148e-02  3.3200e-03  8.6925e+01  9.7690e-03  0:05:24 1236
   765  9.6807e-03  1.0902e-02  3.2497e-03  8.7384e+01  9.6774e-03  0:08:26 1235
   766  9.5448e-03  1.0768e-02  3.2045e-03  8.7954e+01  9.5413e-03  0:06:45 1234
   767  9.3911e-03  1.0702e-02  3.2059e-03  8.8230e+01  9.3874e-03  0:05:23 1233
   768  9.2258e-03  1.0702e-02  3.2373e-03  8.7286e+01  9.2220e-03  0:08:25 1232
   769  9.0412e-03  1.0759e-02  3.3015e-03  8.5470e+01  9.0373e-03  0:06:44 1231
   770  8.8748e-03  1.0872e-02  3.3663e-03  8.6494e+01  8.8710e-03  0:05:23 1230

  iter  continuity  x-velocity  y-velocity  z-velocity      energy     time/iter
   771  8.7074e-03  1.1018e-02  3.4293e-03  8.7270e+01  8.7036e-03  0:08:24 1229
   772  8.5106e-03  1.1176e-02  3.4831e-03  8.6201e+01  8.5069e-03  0:06:43 1228
   773  8.2847e-03  1.1312e-02  3.5186e-03  8.5374e+01  8.2811e-03  0:05:22 1227
   774  8.0261e-03  1.1358e-02  3.5467e-03  8.3265e+01  8.0227e-03  0:08:22 1226
   775  7.7292e-03  1.1333e-02  3.5714e-03  8.0557e+01  7.7259e-03  0:06:42 1225
   776  7.4336e-03  1.1229e-02  3.5865e-03  8.2320e+01  7.4305e-03  0:05:21 1224
   777  7.1272e-03  1.1102e-02  3.5957e-03  8.8714e+01  7.1243e-03  0:08:21 1223
   778  6.7600e-03  1.0981e-02  3.6016e-03  9.8558e+01  6.7573e-03  0:06:41 1222
   779  6.3481e-03  1.0868e-02  3.6234e-03  1.0707e+02  6.3455e-03  0:09:24 1221
   780  5.8949e-03  1.0760e-02  3.6693e-03  1.0868e+02  5.8925e-03  0:07:31 1220
   781  5.4201e-03  1.0648e-02  3.7339e-03  1.0522e+02  5.4180e-03  0:06:01 1219

  iter  continuity  x-velocity  y-velocity  z-velocity      energy     time/iter
   782  4.9177e-03  1.0546e-02  3.8206e-03  9.7756e+01  4.9157e-03  0:08:52 1218
   783  4.4220e-03  1.0483e-02  3.9226e-03  8.8939e+01  4.4202e-03  0:07:05 1217
   784  3.9964e-03  1.0449e-02  4.0310e-03  8.2466e+01  3.9949e-03  0:05:40 1216
   785  3.6626e-03  1.0410e-02  4.1475e-03  7.9141e+01  3.6616e-03  0:08:35 1215
   786  3.4302e-03  1.0388e-02  4.2679e-03  8.0187e+01  3.4298e-03  0:06:51 1214
   787  3.3294e-03  1.0381e-02  4.3871e-03  8.5631e+01  3.3297e-03  0:05:29 1213
   788  3.3308e-03  1.0285e-02  4.5152e-03  9.5544e+01  3.3317e-03  0:08:25 1212
   789  3.4247e-03  1.0160e-02  4.6559e-03  1.1196e+02  3.4262e-03  0:06:44 1211
   790  3.5942e-03  1.0128e-02  4.7879e-03  1.3152e+02  3.5960e-03  0:05:23 1210
   791  3.8454e-03  1.0140e-02  4.9209e-03  1.4928e+02  3.8474e-03  0:08:20 1209
   792  4.1566e-03  1.0169e-02  5.0577e-03  1.6374e+02  4.1587e-03  0:06:40 1208

  iter  continuity  x-velocity  y-velocity  z-velocity      energy     time/iter
   793  4.5071e-03  1.0167e-02  5.1921e-03  1.7262e+02  4.5090e-03  0:05:19 1207
   794  4.9709e-03  1.0179e-02  5.3239e-03  1.8282e+02  4.9727e-03  0:08:16 1206
   795  5.5511e-03  1.0240e-02  5.4542e-03  1.9776e+02  5.5528e-03  0:06:37 1205
   796  6.1979e-03  1.0333e-02  5.5744e-03  2.0709e+02  6.1994e-03  0:05:17 1204
   797  6.7737e-03  1.0443e-02  5.6870e-03  2.0760e+02  6.7749e-03  0:08:14 1203
   798  7.2794e-03  1.0546e-02  5.7912e-03  2.0084e+02  7.2805e-03  0:06:35 1202
   799  7.7760e-03  1.0691e-02  5.8771e-03  1.9033e+02  7.7769e-03  0:05:16 1201
   800  8.2647e-03  1.0850e-02  5.9476e-03  1.8255e+02  8.2655e-03  0:08:12 1200
   801  8.6577e-03  1.0983e-02  6.0004e-03  1.7124e+02  8.6584e-03  0:06:34 1199
   802  8.9526e-03  1.0981e-02  6.0521e-03  1.6300e+02  8.9532e-03  0:05:15 1198
   803  9.2820e-03  1.1001e-02  6.0835e-03  1.6908e+02  9.2825e-03  0:08:11 1197

  iter  continuity  x-velocity  y-velocity  z-velocity      energy     time/iter
   804  9.5981e-03  1.0958e-02  6.1042e-03  1.8471e+02  9.5986e-03  0:06:32 1196
   805  9.9183e-03  1.0992e-02  6.1079e-03  2.1296e+02  9.9188e-03  0:05:14 1195
   806  1.0176e-02  1.1077e-02  6.0949e-03  2.3862e+02  1.0177e-02  0:08:09 1194
   807  1.0343e-02  1.1193e-02  6.0679e-03  2.5724e+02  1.0343e-02  0:06:31 1193
   808  1.0445e-02  1.1309e-02  6.0406e-03  2.6767e+02  1.0446e-02  0:05:13 1192
   809  1.0525e-02  1.1403e-02  6.0079e-03  2.7198e+02  1.0526e-02  0:08:08 1191
[...]

  iter  continuity  x-velocity  y-velocity  z-velocity      energy     time/iter
  1794  5.8821e-03  7.4712e-03  4.6774e-03  7.4074e+03  5.8833e-03  0:00:25  206
  1795  5.8680e-03  7.4047e-03  4.6569e-03  7.5438e+03  5.8691e-03  0:01:01  205
  1796  5.7416e-03  7.2647e-03  4.6320e-03  7.4882e+03  5.7427e-03  0:00:48  204
  1797  5.4875e-03  7.0841e-03  4.6152e-03  7.2837e+03  5.4887e-03  0:00:38  203
  1798  5.1819e-03  6.9337e-03  4.6247e-03  7.0065e+03  5.1831e-03  0:00:31  202
  1799  4.9372e-03  6.8694e-03  4.6508e-03  6.7233e+03  4.9385e-03  0:00:24  201
  1800  4.8445e-03  6.9040e-03  4.6803e-03  6.5043e+03  4.8457e-03  0:00:59  200
  1801  4.9186e-03  7.0347e-03  4.7010e-03  6.3975e+03  4.9195e-03  0:00:47  199
  1802  5.0957e-03  7.2318e-03  4.7100e-03  6.4560e+03  5.0963e-03  0:00:38  198
  1803  5.3064e-03  7.4374e-03  4.7034e-03  6.7156e+03  5.3066e-03  0:00:30  197
  1804  5.4847e-03  7.6021e-03  4.6760e-03  7.0811e+03  5.4847e-03  0:00:24  196

  iter  continuity  x-velocity  y-velocity  z-velocity      energy     time/iter
  1805  5.5911e-03  7.6976e-03  4.6379e-03  7.4594e+03  5.5910e-03  0:00:58  195
  1806  5.5886e-03  7.6958e-03  4.5974e-03  7.7445e+03  5.5885e-03  0:00:46  194
  1807  5.5108e-03  7.6323e-03  4.5647e-03  7.8674e+03  5.5106e-03  0:00:37  193
  1808  5.4294e-03  7.5653e-03  4.5420e-03  7.8707e+03  5.4291e-03  0:00:29  192
  1809  5.3920e-03  7.5422e-03  4.5245e-03  7.7990e+03  5.3917e-03  0:00:23  191
  1810  5.3800e-03  7.5735e-03  4.5204e-03  7.6654e+03  5.3797e-03  0:00:57  190
  1811  5.3951e-03  7.6681e-03  4.5275e-03  7.4873e+03  5.3948e-03  0:00:45  189
  1812  5.5100e-03  7.8155e-03  4.5439e-03  7.3444e+03  5.5096e-03  0:00:36  188
  1813  5.6982e-03  7.9755e-03  4.5422e-03  7.2456e+03  5.6977e-03  0:00:28  187
  1814  5.8760e-03  8.0864e-03  4.5177e-03  7.2391e+03  5.8752e-03  0:00:23  186
  1815  5.9844e-03  8.1140e-03  4.4662e-03  7.3522e+03  5.9835e-03  0:00:55  185

  iter  continuity  x-velocity  y-velocity  z-velocity      energy     time/iter
  1816  6.0081e-03  8.0477e-03  4.3996e-03  7.5010e+03  6.0071e-03  0:00:44  184
  1817  5.9324e-03  7.8933e-03  4.3242e-03  7.5370e+03  5.9312e-03  0:00:35  183
  1818  5.7349e-03  7.6809e-03  4.2496e-03  7.4376e+03  5.7335e-03  0:00:28  182
  1819  5.4202e-03  7.4553e-03  4.1954e-03  7.2840e+03  5.4187e-03  0:00:22  181
  1820  5.0987e-03  7.2809e-03  4.1747e-03  7.1325e+03  5.0970e-03  0:00:54  180
  1821  4.9189e-03  7.2098e-03  4.1728e-03  7.0243e+03  4.9171e-03  0:00:43  179
  1822  4.9395e-03  7.2470e-03  4.1676e-03  6.9666e+03  4.9376e-03  0:00:34  178
  1823  5.1066e-03  7.3621e-03  4.1622e-03  6.9775e+03  5.1046e-03  0:00:27  177
  1824  5.3390e-03  7.5086e-03  4.1499e-03  7.1021e+03  5.3368e-03  0:00:21  176
  1825  5.5132e-03  7.6277e-03  4.1275e-03  7.3767e+03  5.5107e-03  0:00:52  175
  1826  5.6044e-03  7.6827e-03  4.0909e-03  7.7954e+03  5.6018e-03  0:00:41  174

  iter  continuity  x-velocity  y-velocity  z-velocity      energy     time/iter
  1827  5.5968e-03  7.6615e-03  4.0487e-03  8.2544e+03  5.5942e-03  0:00:33  173
  1828  5.4940e-03  7.5755e-03  4.0121e-03  8.5973e+03  5.4913e-03  0:00:26  172
  1829  5.3232e-03  7.4456e-03  3.9935e-03  8.7239e+03  5.3204e-03  0:00:21  171
  1830  5.1549e-03  7.3347e-03  3.9934e-03  8.6588e+03  5.1521e-03  0:00:51  170
  1831  5.0478e-03  7.2886e-03  4.0076e-03  8.4431e+03  5.0449e-03  0:00:40  169
  1832  5.0115e-03  7.3371e-03  4.0448e-03  8.1236e+03  5.0087e-03  0:00:32  168
  1833  5.0332e-03  7.4440e-03  4.0993e-03  7.7518e+03  5.0306e-03  0:00:25  167
  1834  5.1258e-03  7.5676e-03  4.1594e-03  7.4470e+03  5.1232e-03  0:00:20  166
  1835  5.2805e-03  7.6877e-03  4.2009e-03  7.3142e+03  5.2779e-03  0:00:49  165
  1836  5.4310e-03  7.7560e-03  4.2158e-03  7.4228e+03  5.4285e-03  0:00:39  164
  1837  5.4899e-03  7.7194e-03  4.2038e-03  7.6555e+03  5.4873e-03  0:00:31  163

  iter  continuity  x-velocity  y-velocity  z-velocity      energy     time/iter
  1838  5.4617e-03  7.5672e-03  4.1793e-03  7.7754e+03  5.4591e-03  0:00:25  162
  1839  5.3608e-03  7.3460e-03  4.1422e-03  7.7532e+03  5.3582e-03  0:00:20  161
  1840  5.1486e-03  7.0962e-03  4.1159e-03  7.6296e+03  5.1458e-03  0:00:48  160
  1841  4.8331e-03  6.8617e-03  4.1197e-03  7.4430e+03  4.8301e-03  0:00:38  159
  1842  4.5538e-03  6.7096e-03  4.1576e-03  7.2567e+03  4.5507e-03  0:00:30  158
  1843  4.4143e-03  6.6681e-03  4.2065e-03  7.0790e+03  4.4113e-03  0:00:24  157
  1844  4.4429e-03  6.7310e-03  4.2545e-03  6.9754e+03  4.4400e-03  0:00:19  156
  1845  4.5920e-03  6.8552e-03  4.2979e-03  7.0563e+03  4.5892e-03  0:00:46  155
  1846  4.8134e-03  6.9747e-03  4.3359e-03  7.4120e+03  4.8107e-03  0:00:37  154
  1847  5.0143e-03  7.0453e-03  4.3555e-03  7.9201e+03  5.0116e-03  0:00:29  153
  1848  5.1547e-03  7.0397e-03  4.3574e-03  8.4452e+03  5.1521e-03  0:00:23  152

  iter  continuity  x-velocity  y-velocity  z-velocity      energy     time/iter
  1849  5.1982e-03  6.9610e-03  4.3548e-03  8.8654e+03  5.1957e-03  0:00:18  151
  1850  5.1150e-03  6.8237e-03  4.3602e-03  8.9615e+03  5.1125e-03  0:00:45  150
  1851  4.9531e-03  6.6648e-03  4.3795e-03  8.7437e+03  4.9505e-03  0:00:35  149
  1852  4.7889e-03  6.5454e-03  4.4058e-03  8.2954e+03  4.7864e-03  0:00:28  148
  1853  4.6546e-03  6.5050e-03  4.4515e-03  7.6939e+03  4.6522e-03  0:00:22  147
  1854  4.5457e-03  6.5484e-03  4.5196e-03  7.0206e+03  4.5433e-03  0:00:18  146
  1855  4.5206e-03  6.6560e-03  4.6045e-03  6.5112e+03  4.5184e-03  0:00:43  145
  1856  4.6339e-03  6.8264e-03  4.6799e-03  6.3620e+03  4.6319e-03  0:00:34  144
  1857  4.8227e-03  7.0045e-03  4.7343e-03  6.5591e+03  4.8209e-03  0:00:27  143
  1858  5.0171e-03  7.1131e-03  4.7626e-03  7.0023e+03  5.0154e-03  0:00:22  142
  1859  5.1514e-03  7.1128e-03  4.7756e-03  7.4658e+03  5.1499e-03  0:00:17  141

  iter  continuity  x-velocity  y-velocity  z-velocity      energy     time/iter
  1860  5.2060e-03  7.0147e-03  4.7622e-03  7.7305e+03  5.2045e-03  0:00:42  140
  1861  5.1980e-03  6.8639e-03  4.7329e-03  7.8090e+03  5.1966e-03  0:00:33  139
  1862  5.0487e-03  6.6857e-03  4.7052e-03  7.7177e+03  5.0474e-03  0:00:26  138
  1863  4.8126e-03  6.5302e-03  4.6981e-03  7.4643e+03  4.8112e-03  0:00:21  137
  1864  4.5708e-03  6.4458e-03  4.7094e-03  7.0801e+03  4.5694e-03  0:00:17  136
  1865  4.4117e-03  6.4567e-03  4.7327e-03  6.6974e+03  4.4105e-03  0:00:40  135
  1866  4.3300e-03  6.5207e-03  4.7603e-03  6.4679e+03  4.3290e-03  0:00:32  134
  1867  4.3737e-03  6.6126e-03  4.7928e-03  6.5830e+03  4.3728e-03  0:00:25  133
  1868  4.5594e-03  6.7142e-03  4.8163e-03  7.0398e+03  4.5587e-03  0:00:20  132
  1869  4.8068e-03  6.7992e-03  4.8188e-03  7.6131e+03  4.8063e-03  0:00:16  131
  1870  5.0088e-03  6.8290e-03  4.8056e-03  8.0811e+03  5.0084e-03  0:00:39  130

  iter  continuity  x-velocity  y-velocity  z-velocity      energy     time/iter
  1871  5.0770e-03  6.7880e-03  4.7872e-03  8.2756e+03  5.0767e-03  0:00:31  129
  1872  5.0234e-03  6.7203e-03  4.7606e-03  8.1693e+03  5.0232e-03  0:00:24  128
  1873  4.8929e-03  6.6359e-03  4.7303e-03  7.8046e+03  4.8928e-03  0:00:19  127
  1874  4.7248e-03  6.5569e-03  4.7057e-03  7.3043e+03  4.7247e-03  0:00:41  126
  1875  4.5522e-03  6.5196e-03  4.6913e-03  6.7536e+03  4.5523e-03  0:00:32  125
  1876  4.4276e-03  6.5377e-03  4.6967e-03  6.2966e+03  4.4278e-03  0:00:26  124
  1877  4.4305e-03  6.6184e-03  4.7103e-03  6.0820e+03  4.4307e-03  0:00:20  123
  1878  4.5553e-03  6.7284e-03  4.7291e-03  6.1367e+03  4.5557e-03  0:00:16  122
  1879  4.7618e-03  6.8469e-03  4.7399e-03  6.4228e+03  4.7623e-03  0:00:37  121
  1880  4.9707e-03  6.9355e-03  4.7371e-03  6.7941e+03  4.9712e-03  0:00:29  120
  1881  5.1511e-03  6.9646e-03  4.7172e-03  7.1047e+03  5.1516e-03  0:00:23  119

  iter  continuity  x-velocity  y-velocity  z-velocity      energy     time/iter
  1882  5.2636e-03  6.9502e-03  4.6747e-03  7.3128e+03  5.2642e-03  0:00:18  118
  1883  5.2492e-03  6.8961e-03  4.6164e-03  7.3972e+03  5.2498e-03  0:00:15  117
  1884  5.1479e-03  6.8366e-03  4.5638e-03  7.3204e+03  5.1485e-03  0:00:35  116
  1885  4.9860e-03  6.8010e-03  4.5269e-03  7.0946e+03  4.9866e-03  0:00:28  115
  1886  4.7790e-03  6.7983e-03  4.5000e-03  6.7810e+03  4.7798e-03  0:00:22  114
  1887  4.6043e-03  6.8357e-03  4.4869e-03  6.5763e+03  4.6052e-03  0:00:17  113
  1888  4.5477e-03  6.9055e-03  4.4872e-03  6.6331e+03  4.5487e-03  0:00:14  112
  1889  4.6447e-03  6.9704e-03  4.4858e-03  6.9551e+03  4.6457e-03  0:00:33  111
  1890  4.8509e-03  7.0419e-03  4.4736e-03  7.4333e+03  4.8520e-03  0:00:26  110
  1891  5.0597e-03  7.0883e-03  4.4386e-03  7.8494e+03  5.0609e-03  0:00:21  109
  1892  5.1919e-03  7.1010e-03  4.3948e-03  8.0662e+03  5.1932e-03  0:00:16  108

  iter  continuity  x-velocity  y-velocity  z-velocity      energy     time/iter
  1893  5.1844e-03  7.0756e-03  4.3359e-03  7.9686e+03  5.1857e-03  0:00:13  107
  1894  5.0540e-03  7.0190e-03  4.2762e-03  7.6205e+03  5.0554e-03  0:00:32  106
  1895  4.8652e-03  6.9610e-03  4.2157e-03  7.1346e+03  4.8666e-03  0:00:25  105
  1896  4.6789e-03  6.8916e-03  4.1595e-03  6.6744e+03  4.6802e-03  0:00:20  104
  1897  4.5830e-03  6.8694e-03  4.1115e-03  6.3762e+03  4.5843e-03  0:00:16  103
  1898  4.5725e-03  6.8830e-03  4.0784e-03  6.2703e+03  4.5738e-03  0:00:12  102
  1899  4.6269e-03  6.9049e-03  4.0617e-03  6.3259e+03  4.6281e-03  0:00:30  101
  1900  4.7494e-03  6.9213e-03  4.0554e-03  6.5346e+03  4.7505e-03  0:00:24  100
  1901  4.9288e-03  6.8969e-03  4.0433e-03  6.8145e+03  4.9299e-03  0:00:19   99
  1902  5.0898e-03  6.8561e-03  4.0131e-03  7.0364e+03  5.0908e-03  0:00:15   98
  1903  5.1711e-03  6.8136e-03  3.9615e-03  7.1433e+03  5.1721e-03  0:00:12   97

  iter  continuity  x-velocity  y-velocity  z-velocity      energy     time/iter
  1904  5.1481e-03  6.7678e-03  3.9025e-03  7.1204e+03  5.1490e-03  0:00:29   96
  1905  5.0867e-03  6.7382e-03  3.8357e-03  7.0179e+03  5.0876e-03  0:00:23   95
  1906  4.9840e-03  6.7342e-03  3.7757e-03  6.8464e+03  4.9847e-03  0:00:18   94
  1907  4.8448e-03  6.7516e-03  3.7382e-03  6.6548e+03  4.8456e-03  0:00:14   93
  1908  4.7107e-03  6.7858e-03  3.7183e-03  6.5549e+03  4.7114e-03  0:00:11   92
  1909  4.6948e-03  6.8390e-03  3.7168e-03  6.6945e+03  4.6955e-03  0:00:09   91
  1910  4.8138e-03  6.9325e-03  3.6993e-03  7.0711e+03  4.8146e-03  0:00:25   90
  1911  5.0166e-03  6.9908e-03  3.6723e-03  7.5957e+03  5.0173e-03  0:00:20   89
  1912  5.1604e-03  6.9632e-03  3.6326e-03  8.0307e+03  5.1612e-03  0:00:16   88
  1913  5.2088e-03  6.8822e-03  3.5840e-03  8.2828e+03  5.2097e-03  0:00:12   87
  1914  5.1146e-03  6.7888e-03  3.5283e-03  8.2613e+03  5.1155e-03  0:00:10   86

  iter  continuity  x-velocity  y-velocity  z-velocity      energy     time/iter
  1915  4.9183e-03  6.6868e-03  3.4756e-03  8.0222e+03  4.9193e-03  0:00:25   85
  1916  4.7159e-03  6.6392e-03  3.4207e-03  7.6567e+03  4.7169e-03  0:00:20   84
  1917  4.6091e-03  6.6779e-03  3.3616e-03  7.3021e+03  4.6102e-03  0:00:15   83
  1918  4.6445e-03  6.7561e-03  3.3129e-03  7.0505e+03  4.6457e-03  0:00:12   82
  1919  4.7524e-03  6.8364e-03  3.2811e-03  6.9500e+03  4.7535e-03  0:00:10   81
  1920  4.8786e-03  6.8945e-03  3.2652e-03  6.9515e+03  4.8797e-03  0:00:24   80
  1921  4.9841e-03  6.8925e-03  3.2559e-03  7.0218e+03  4.9850e-03  0:00:19   79
  1922  5.0624e-03  6.8341e-03  3.2480e-03  7.1558e+03  5.0633e-03  0:00:15   78
  1923  5.1140e-03  6.7381e-03  3.2161e-03  7.2834e+03  5.1148e-03  0:00:12   77
  1924  5.0881e-03  6.5970e-03  3.1652e-03  7.3113e+03  5.0889e-03  0:00:09   76
  1925  4.9783e-03  6.4512e-03  3.1119e-03  7.2110e+03  4.9791e-03  0:00:22   75

  iter  continuity  x-velocity  y-velocity  z-velocity      energy     time/iter
  1926  4.8085e-03  6.3342e-03  3.0655e-03  7.0483e+03  4.8093e-03  0:00:18   74
  1927  4.6465e-03  6.2663e-03  3.0331e-03  6.8832e+03  4.6472e-03  0:00:14   73
  1928  4.5234e-03  6.2931e-03  3.0206e-03  6.7278e+03  4.5241e-03  0:00:11   72
  1929  4.4381e-03  6.3548e-03  3.0216e-03  6.6482e+03  4.4388e-03  0:00:09   71
  1930  4.4351e-03  6.4168e-03  3.0258e-03  6.7535e+03  4.4358e-03  0:00:21   70
  1931  4.5654e-03  6.4850e-03  3.0141e-03  7.1213e+03  4.5661e-03  0:00:16   69
  1932  4.7451e-03  6.5231e-03  2.9882e-03  7.6433e+03  4.7459e-03  0:00:13   68
  1933  4.8643e-03  6.5015e-03  2.9554e-03  8.1180e+03  4.8651e-03  0:00:10   67
  1934  4.8579e-03  6.4396e-03  2.9127e-03  8.4044e+03  4.8587e-03  0:00:08   66
  1935  4.7263e-03  6.3606e-03  2.8689e-03  8.4053e+03  4.7272e-03  0:00:19   65
  1936  4.5520e-03  6.2903e-03  2.8259e-03  8.1825e+03  4.5529e-03  0:00:15   64

  iter  continuity  x-velocity  y-velocity  z-velocity      energy     time/iter
  1937  4.3869e-03  6.2567e-03  2.7846e-03  7.8302e+03  4.3878e-03  0:00:12   63
  1938  4.3129e-03  6.2829e-03  2.7584e-03  7.4672e+03  4.3140e-03  0:00:09   62
  1939  4.3786e-03  6.3668e-03  2.7484e-03  7.1807e+03  4.3798e-03  0:00:07   61
  1940  4.5505e-03  6.4709e-03  2.7411e-03  7.0223e+03  4.5518e-03  0:00:18   60
  1941  4.7525e-03  6.5753e-03  2.7410e-03  6.9650e+03  4.7539e-03  0:00:14   59
  1942  4.8738e-03  6.6231e-03  2.7398e-03  6.9704e+03  4.8751e-03  0:00:11   58
  1943  4.9287e-03  6.6047e-03  2.7262e-03  7.0647e+03  4.9299e-03  0:00:09   57
  1944  4.9675e-03  6.5314e-03  2.6973e-03  7.2947e+03  4.9687e-03  0:00:07   56
  1945  4.9680e-03  6.3855e-03  2.6421e-03  7.4935e+03  4.9692e-03  0:00:16   55
  1946  4.8331e-03  6.1875e-03  2.5833e-03  7.4942e+03  4.8343e-03  0:00:13   54
  1947  4.6168e-03  5.9996e-03  2.5498e-03  7.3561e+03  4.6179e-03  0:00:10   53

  iter  continuity  x-velocity  y-velocity  z-velocity      energy     time/iter
  1948  4.3984e-03  5.8893e-03  2.5279e-03  7.1850e+03  4.3995e-03  0:00:08   52
  1949  4.2486e-03  5.8780e-03  2.5156e-03  7.0427e+03  4.2497e-03  0:00:06   51
  1950  4.1609e-03  5.9214e-03  2.5206e-03  6.9617e+03  4.1620e-03  0:00:15   50
  1951  4.1872e-03  5.9901e-03  2.5378e-03  7.0488e+03  4.1882e-03  0:00:12   49
  1952  4.3544e-03  6.0509e-03  2.5324e-03  7.3854e+03  4.3554e-03  0:00:09   48
  1953  4.5666e-03  6.0818e-03  2.5016e-03  7.9109e+03  4.5676e-03  0:00:07   47
  1954  4.7235e-03  6.0518e-03  2.4588e-03  8.4205e+03  4.7246e-03  0:00:06   46
  1955  4.7220e-03  5.9615e-03  2.4138e-03  8.6680e+03  4.7231e-03  0:00:13   45
  1956  4.5816e-03  5.8459e-03  2.3717e-03  8.5507e+03  4.5826e-03  0:00:10   44
  1957  4.3809e-03  5.7823e-03  2.3433e-03  8.1261e+03  4.3819e-03  0:00:08   43
  1958  4.2024e-03  5.7799e-03  2.3300e-03  7.5725e+03  4.2034e-03  0:00:06   42

  iter  continuity  x-velocity  y-velocity  z-velocity      energy     time/iter
  1959  4.1212e-03  5.8198e-03  2.3322e-03  7.0812e+03  4.1223e-03  0:00:05   41
  1960  4.1721e-03  5.8954e-03  2.3530e-03  6.7781e+03  4.1733e-03  0:00:12   40
  1961  4.3411e-03  6.0075e-03  2.3778e-03  6.6693e+03  4.3424e-03  0:00:09   39
  1962  4.5576e-03  6.1303e-03  2.4083e-03  6.7098e+03  4.5590e-03  0:00:07   38
  1963  4.7426e-03  6.2175e-03  2.4271e-03  6.8567e+03  4.7440e-03  0:00:06   37
  1964  4.8644e-03  6.2195e-03  2.4291e-03  7.0771e+03  4.8657e-03  0:00:04   36
  1965  4.9478e-03  6.1737e-03  2.4051e-03  7.3829e+03  4.9491e-03  0:00:10   35
  1966  4.9535e-03  6.0402e-03  2.3455e-03  7.6293e+03  4.9547e-03  0:00:08   34
  1967  4.8296e-03  5.8325e-03  2.2763e-03  7.6275e+03  4.8308e-03  0:00:06   33
  1968  4.6116e-03  5.6213e-03  2.2267e-03  7.4402e+03  4.6127e-03  0:00:05   32
  1969  4.3730e-03  5.4675e-03  2.2056e-03  7.2313e+03  4.3741e-03  0:00:10   31

  iter  continuity  x-velocity  y-velocity  z-velocity      energy     time/iter
  1970  4.1804e-03  5.3865e-03  2.1953e-03  7.0737e+03  4.1816e-03  0:00:08   30
  1971  4.0627e-03  5.3687e-03  2.2059e-03  6.9748e+03  4.0639e-03  0:00:06   29
  1972  4.0815e-03  5.4103e-03  2.2443e-03  7.0311e+03  4.0826e-03  0:00:05   28
  1973  4.2886e-03  5.5168e-03  2.2589e-03  7.3739e+03  4.2896e-03  0:00:04   27
  1974  4.5626e-03  5.6036e-03  2.2401e-03  7.9189e+03  4.5638e-03  0:00:08   26
  1975  4.7639e-03  5.6358e-03  2.1939e-03  8.4090e+03  4.7653e-03  0:00:06   25
  1976  4.7899e-03  5.5703e-03  2.1421e-03  8.5835e+03  4.7913e-03  0:00:05   24
  1977  4.6530e-03  5.4417e-03  2.0936e-03  8.3771e+03  4.6543e-03  0:00:04   23
  1978  4.4340e-03  5.3108e-03  2.0681e-03  7.8618e+03  4.4352e-03  0:00:03   22
  1979  4.2240e-03  5.2226e-03  2.0600e-03  7.2309e+03  4.2251e-03  0:00:06   21
  1980  4.1031e-03  5.1970e-03  2.0612e-03  6.7013e+03  4.1042e-03  0:00:05   20

  iter  continuity  x-velocity  y-velocity  z-velocity      energy     time/iter
  1981  4.1066e-03  5.2529e-03  2.0788e-03  6.3972e+03  4.1077e-03  0:00:04   19
  1982  4.2364e-03  5.4047e-03  2.1124e-03  6.3186e+03  4.2377e-03  0:00:03   18
  1983  4.4354e-03  5.5617e-03  2.1571e-03  6.3989e+03  4.4368e-03  0:00:02   17
  1984  4.6372e-03  5.6697e-03  2.2008e-03  6.6508e+03  4.6387e-03  0:00:05   16
  1985  4.7953e-03  5.7160e-03  2.2347e-03  6.9695e+03  4.7967e-03  0:00:04   15
  1986  4.8890e-03  5.6915e-03  2.2369e-03  7.2534e+03  4.8903e-03  0:00:03   14
  1987  4.9077e-03  5.5910e-03  2.1969e-03  7.4403e+03  4.9090e-03  0:00:02   13
  1988  4.8023e-03  5.4086e-03  2.1220e-03  7.4039e+03  4.8035e-03  0:00:01   12
  1989  4.6044e-03  5.1974e-03  2.0428e-03  7.1954e+03  4.6056e-03  0:00:03   11
  1990  4.3724e-03  5.0360e-03  2.0015e-03  6.9875e+03  4.3736e-03  0:00:02   10
  1991  4.1650e-03  4.9568e-03  1.9769e-03  6.8531e+03  4.1663e-03  0:00:02    9

  iter  continuity  x-velocity  y-velocity  z-velocity      energy     time/iter
  1992  4.0069e-03  4.9553e-03  1.9856e-03  6.6827e+03  4.0082e-03  0:00:01    8
  1993  3.9741e-03  4.9957e-03  2.0285e-03  6.6038e+03  3.9753e-03  0:00:01    7
  1994  4.1351e-03  5.0549e-03  2.0647e-03  6.8555e+03  4.1363e-03  0:00:02    6
  1995  4.4196e-03  5.1251e-03  2.0654e-03  7.3605e+03  4.4209e-03  0:00:01    5
  1996  4.6602e-03  5.1602e-03  2.0267e-03  7.8135e+03  4.6618e-03  0:00:01    4
  1997  4.7314e-03  5.1359e-03  1.9755e-03  7.9703e+03  4.7331e-03  0:00:00    3
  1998  4.6382e-03  5.0802e-03  1.9197e-03  7.8060e+03  4.6398e-03  0:00:00    2
  1999  4.4458e-03  5.0216e-03  1.8844e-03  7.3693e+03  4.4472e-03  0:00:00    1
  2000  4.2412e-03  4.9371e-03  1.8579e-03  6.8363e+03  4.2425e-03  0:00:00    0

> 
adjoint/                parallel/               server/
define/                 parametric-study/       solve/
display/                plot/                   surface/
exit                    preferences/            turbo-workflow/
file/                   print-license-usage     views/
mesh/                   report/

> /file/write-case-data project1
Fast-loading "C:\PROGRA~1\ANSYSI~1\v231\fluent\fluent23.1.0\\addons\afd\lib\hdfio.bin"
Done.

Writing to Engs-30669:"C:\Users\kebl7595\Desktop\CFD\Runs\Actual Data\0 degree fine mesh\project1.cas.h5" in NODE0 mode and compression level 1 ...
       35100 cells,     1 zone  ...
      117798 faces,     8 zones ...
       47864 nodes,     1 zone  ...
  Done.
Done.

Writing to Engs-30669:"C:\Users\kebl7595\Desktop\CFD\Runs\Actual Data\0 degree fine mesh\project1.dat.h5" in NODE0 mode and compression level 1 ...
  Writing results.
Done.

> /file/export/ascii "./surface.dat" wing te () no pressure mach-number quit no

Writing "./surface.dat"...

Writing information to ascii file ...
Done.


> /plot/plot y "data.dat" no n n pressure-coefficient no n x-coordinate wing ()

> 
adjoint/                parallel/               server/
define/                 parametric-study/       solve/
display/                plot/                   surface/
exit                    preferences/            turbo-workflow/
file/                   print-license-usage     views/
mesh/                   report/

> /exit

Posting ANSYS Product Improvement Program performance data 
Done.
Auto-Transcript Stop Time:  14:33:13, 20 May 2024 GMT Daylight Time 
Total Transcript Time: 8 Minute 17 Second.
