Auto-Transcript Start Time:  14:52:41, 20 May 2024 GMT Daylight Time 
Current Directory: "C:\Users\kebl7595\Desktop\CFD\Runs\Actual Data\18 degree"

              Welcome to ANSYS Fluent 2023 R1

              Copyright 1987-2023 ANSYS, Inc. All Rights Reserved.
              Unauthorized use, distribution or duplication is prohibited.
              This product is subject to U.S. laws governing export and re-export.
              For full Legal Notice, see documentation.

Build Time: Nov 28 2022 09:52:02 EST  Build Id: 10208  
 
Connected License Server List:	1055@ansyslic.eng.ox.ac.uk

*********************************************
Info: Your license enables 4-way parallel execution.
For faster simulations, please start the application with the appropriate parallel options.
*********************************************


     --------------------------------------------------------------
     This is an academic version of ANSYS FLUENT. Usage of this product
     license is limited to the terms and conditions specified in your ANSYS
     license form, additional terms section.
     --------------------------------------------------------------
Host spawning Node 0 on machine "Engs-30669" (win64).

------------------------------------------------------------------------------------
ID    Hostname    Core  O.S.         PID    Vendor                                 
------------------------------------------------------------------------------------
n0    Engs-30669  1/32  Windows-x64  31092  13th Gen Intel(R) Core(TM) i9-13900    
host  Engs-30669        Windows-x64  45716  13th Gen Intel(R) Core(TM) i9-13900    

MPI Option Selected: intel
------------------------------------------------------------------------------------

Cleanup script file is C:\\Users\\kebl7595\\Desktop\\CFD\\Runs\\Actual Data\\18 degree\\cleanup-fluent-Engs-30669-45716.bat
QA Service Message :
QA Services Agreement Enabled. This application is included in the scope of an ANSYS QA Services Agreement.
Posting ANSYS Product Improvement Program startup data
Done.

Reading journal file C:/Users/kebl7595/Desktop/CFD/Runs/Actual Data/18 degree/project1.jou...

> /file/set-batch-options no no no 

> 
define/                 parametric-study/       solve/
display/                plot/                   surface/
exit                    preferences/            switch-to-meshing-mode
file/                   print-license-usage     turbo-workflow/
mesh/                   report/                 views/
parallel/               server/

> /file/import/cgns/mesh  "./project1.cgns"
Engs-30669 has other FLUENT parallel processes running.                       Process affinity not being set.

Importing "./project1.cgns"

Opening library "C:\\PROGRA~1\\ANSYSI~1\\v231\\fluent\\fluent23.1.0\\vki\\win64\\devtools4.4.6.dll"... done.

Read    17864 nodes
   12996 hexahedral cells, zone  1
    9462 quadrilateral wall faces, zone  2.
   33972 quadrilateral interior faces, zone  3.
     282 quadrilateral interface faces, zone  4.
       6 quadrilateral wall faces, zone  5.

Building...
     mesh
     materials,
     interface,
     domains,
     zones,
	default_exterior-1
	interface-default_subface
	default_interior-1
	default_subface
	default
     parallel,
The automatic selection for flux type has changed to Rhie-Chow: momentum based.

Done.


> 
adjoint/                parallel/               server/
define/                 parametric-study/       solve/
display/                plot/                   surface/
exit                    preferences/            turbo-workflow/
file/                   print-license-usage     views/
mesh/                   report/

> /define/models/solver/density-based-implicit yes

> 
adjoint/                parallel/               server/
define/                 parametric-study/       solve/
display/                plot/                   surface/
exit                    preferences/            turbo-workflow/
file/                   print-license-usage     views/
mesh/                   report/

> /define/models/energy? yes yes invalid command [yes]
yes

> /define/models/viscous/inviscid yes

> 
adjoint/                parallel/               server/
define/                 parametric-study/       solve/
display/                plot/                   surface/
exit                    preferences/            turbo-workflow/
file/                   print-license-usage     views/
mesh/                   report/

> /define/materials/change-create air air air is a fluid
yes 
Density
ideal-gas no data required.

no no no no 

> 
adjoint/                parallel/               server/
define/                 parametric-study/       solve/
display/                plot/                   surface/
exit                    preferences/            turbo-workflow/
file/                   print-license-usage     views/
mesh/                   report/

> /mesh/modify-zones/sep-face-zone-angle 2 90 yes

 4332 faces in contiguous region 0
 228 faces in contiguous region 1
 342 faces in contiguous region 2
 4332 faces in contiguous region 3
 228 faces in contiguous region 4
 Separates zone 2 into 5 zone(s).
Updating new zone information...
   created new zone default_subface:010 from default_subface
   created new zone default_subface:009 from default_subface
   created new zone default_subface:008 from default_subface
   created new zone default_subface:007 from default_subface
done.

> 
adjoint/                parallel/               server/
define/                 parametric-study/       solve/
display/                plot/                   surface/
exit                    preferences/            turbo-workflow/
file/                   print-license-usage     views/
mesh/                   report/

> /define/boundary-conditions/zone-name  5   te

> /define/boundary-conditions/zone-name  7 wing

> /define/boundary-conditions/zone-name  2 sym1

> /define/boundary-conditions/zone-name  9 sym2

> 
adjoint/                parallel/               server/
define/                 parametric-study/       solve/
display/                plot/                   surface/
exit                    preferences/            turbo-workflow/
file/                   print-license-usage     views/
mesh/                   report/

> /define/boundary-conditions/zone-name  8 far1

> /define/boundary-conditions/zone-name 10 far2

> 
adjoint/                parallel/               server/
define/                 parametric-study/       solve/
display/                plot/                   surface/
exit                    preferences/            turbo-workflow/
file/                   print-license-usage     views/
mesh/                   report/

> /define/boundary-conditions/zone-type  8 pressure-far-field

> /define/boundary-conditions/zone-type 10 pressure-far-field

> /define/boundary-conditions/zone-type  2 symmetry

> /define/boundary-conditions/zone-type  9 symmetry

> 
adjoint/                parallel/               server/
define/                 parametric-study/       solve/
display/                plot/                   surface/
exit                    preferences/            turbo-workflow/
file/                   print-license-usage     views/
mesh/                   report/

> /define/boundary-conditions/pressure-far-field (far2 far1)
far1 no 0 no 0.1 no 300 yes no 0.95106 no 0.30902 no 0

> /define/boundary-conditions/pressure-far-field (far2 far1)
far2 no 0 no 0.1 no 300 yes no 0.95106 no 0.30902 no 0

> 
adjoint/                parallel/               server/
define/                 parametric-study/       solve/
display/                plot/                   surface/
exit                    preferences/            turbo-workflow/
file/                   print-license-usage     views/
mesh/                   report/

> /solve/initialize/compute-defaults/pressure-far-field (far2 far1)
far1

> /solve/initialize/initialize-flow

> 
adjoint/                parallel/               server/
define/                 parametric-study/       solve/
display/                plot/                   surface/
exit                    preferences/            turbo-workflow/
file/                   print-license-usage     views/
mesh/                   report/

> /solve/monitors/residual/convergence-criteria 1.e-9 1.e-9 1.e-9 1.e-9 1.e-9

> /solve/iterate 2000

  iter  continuity  x-velocity  y-velocity  z-velocity      energy     time/iter
     1  1.0000e+00  1.0000e+00  1.0000e+00  0.0000e+00  1.0000e+00  0:00:00 1999
     2  5.2863e-01  4.9155e-01  4.0119e-01  1.0000e+00  5.2922e-01  0:33:18 1998
     3  2.7134e-01  2.2186e-01  2.3938e-01  8.3281e-01  2.7156e-01  0:26:38 1997
     4  1.6710e-01  1.4916e-01  1.4593e-01  5.6159e-01  1.6716e-01  0:21:17 1996
     5  1.2734e-01  1.0640e-01  9.2648e-02  5.5952e-01  1.2743e-01  0:17:01 1995
     6  1.0558e-01  7.4428e-02  6.4425e-02  6.8541e-01  1.0570e-01  0:13:37 1994
     7  9.0890e-02  5.3844e-02  4.8356e-02  7.2504e-01  9.1031e-02  0:10:53 1993
     8  8.0140e-02  4.1702e-02  3.7854e-02  7.0061e-01  8.0280e-02  0:08:42 1992
     9  7.2315e-02  3.4554e-02  3.0639e-02  6.7765e-01  7.2445e-02  0:06:58 1991
    10  6.6775e-02  3.0584e-02  2.5621e-02  6.5775e-01  6.6891e-02  0:05:34 1990
    11  6.2937e-02  2.8689e-02  2.2067e-02  6.3661e-01  6.3038e-02  0:04:27 1989

  iter  continuity  x-velocity  y-velocity  z-velocity      energy     time/iter
    12  6.0757e-02  2.8082e-02  1.9552e-02  6.2074e-01  6.0843e-02  0:03:33 1988
    13  5.9777e-02  2.8259e-02  1.7856e-02  6.1437e-01  5.9849e-02  0:02:51 1987
    14  5.9844e-02  2.8981e-02  1.6698e-02  6.2344e-01  5.9905e-02  0:02:16 1986
    15  6.0560e-02  3.0106e-02  1.5942e-02  6.4380e-01  6.0609e-02  0:01:49 1985
    16  6.1676e-02  3.1316e-02  1.5497e-02  6.7034e-01  6.1713e-02  0:01:27 1984
    17  6.3281e-02  3.2677e-02  1.5272e-02  7.1139e-01  6.3305e-02  0:07:46 1983
    18  6.5104e-02  3.4013e-02  1.5238e-02  7.6210e-01  6.5116e-02  0:06:13 1982
    19  6.6876e-02  3.5208e-02  1.5291e-02  8.2233e-01  6.6872e-02  0:04:58 1981
    20  6.8408e-02  3.6188e-02  1.5360e-02  8.9192e-01  6.8386e-02  0:03:58 1980
    21  6.9925e-02  3.7002e-02  1.5600e-02  9.6720e-01  6.9884e-02  0:03:11 1979
    22  7.1170e-02  3.7503e-02  1.5828e-02  1.0421e+00  7.1107e-02  0:02:32 1978

  iter  continuity  x-velocity  y-velocity  z-velocity      energy     time/iter
    23  7.1906e-02  3.7719e-02  1.5999e-02  1.1112e+00  7.1820e-02  0:02:02 1977
    24  7.2235e-02  3.7668e-02  1.6177e-02  1.1692e+00  7.2125e-02  0:01:37 1976
    25  7.2164e-02  3.7421e-02  1.6356e-02  1.2106e+00  7.2029e-02  0:01:18 1975
    26  7.1590e-02  3.6940e-02  1.6417e-02  1.2315e+00  7.1428e-02  0:01:02 1974
    27  7.0474e-02  3.6112e-02  1.6298e-02  1.2303e+00  7.0286e-02  0:00:50 1973
    28  6.8926e-02  3.5302e-02  1.6234e-02  1.2054e+00  6.8711e-02  0:00:40 1972
    29  6.6934e-02  3.4384e-02  1.6133e-02  1.1587e+00  6.6693e-02  0:00:32 1971
    30  6.4550e-02  3.3291e-02  1.6101e-02  1.0989e+00  6.4284e-02  0:00:25 1970
    31  6.1992e-02  3.2182e-02  1.6230e-02  1.0271e+00  6.1704e-02  0:00:20 1969
    32  5.9051e-02  3.1318e-02  1.6666e-02  9.5265e-01  5.8740e-02  0:00:16 1968
    33  5.5930e-02  3.0438e-02  1.7411e-02  8.9180e-01  5.5600e-02  0:00:13 1967

  iter  continuity  x-velocity  y-velocity  z-velocity      energy     time/iter
    34  5.2721e-02  2.9590e-02  1.8502e-02  8.5474e-01  5.2373e-02  0:00:10 1966
    35  4.9557e-02  2.8950e-02  1.9955e-02  8.4511e-01  4.9194e-02  0:00:08 1965
    36  4.6241e-02  2.8623e-02  2.1688e-02  8.6241e-01  4.5864e-02  0:00:07 1964
    37  4.2926e-02  2.8486e-02  2.3644e-02  9.0452e-01  4.2538e-02  0:00:05 1963
    38  3.9664e-02  2.8528e-02  2.5737e-02  9.6313e-01  3.9266e-02  0:06:37 1962
    39  3.6530e-02  2.8766e-02  2.7883e-02  1.0325e+00  3.6124e-02  0:05:17 1961
    40  3.3539e-02  2.9305e-02  3.0048e-02  1.0969e+00  3.3128e-02  0:04:14 1960
    41  3.0615e-02  3.0130e-02  3.2176e-02  1.1532e+00  3.0199e-02  0:03:23 1959
    42  2.7780e-02  3.1189e-02  3.4212e-02  1.1901e+00  2.7360e-02  0:02:42 1958
    43  2.5078e-02  3.2434e-02  3.6151e-02  1.2102e+00  2.4656e-02  0:02:10 1957
    44  2.2543e-02  3.3740e-02  3.7966e-02  1.2101e+00  2.2119e-02  0:01:44 1956

  iter  continuity  x-velocity  y-velocity  z-velocity      energy     time/iter
    45  2.0187e-02  3.5202e-02  3.9655e-02  1.1923e+00  1.9764e-02  0:01:23 1955
    46  1.8021e-02  3.6820e-02  4.1196e-02  1.1584e+00  1.7601e-02  0:01:06 1954
    47  1.6061e-02  3.8496e-02  4.2580e-02  1.1118e+00  1.5648e-02  0:00:53 1953
    48  1.4316e-02  4.0213e-02  4.3811e-02  1.0571e+00  1.3914e-02  0:00:42 1952
    49  1.2792e-02  4.1942e-02  4.4879e-02  9.9775e-01  1.2406e-02  0:00:34 1951
    50  1.1520e-02  4.3676e-02  4.5771e-02  9.3778e-01  1.1158e-02  0:00:27 1950
    51  1.0536e-02  4.5416e-02  4.6486e-02  8.7967e-01  1.0208e-02  0:00:22 1949
    52  9.8710e-03  4.7147e-02  4.7028e-02  8.2536e-01  9.5861e-03  0:00:17 1948
    53  9.5277e-03  4.8853e-02  4.7393e-02  7.7680e-01  9.2944e-03  0:00:14 1947
    54  9.4850e-03  5.0493e-02  4.7582e-02  7.4288e-01  9.3061e-03  0:00:11 1946
    55  9.7034e-03  5.2070e-02  4.7588e-02  7.2587e-01  9.5763e-03  0:00:09 1945

  iter  continuity  x-velocity  y-velocity  z-velocity      energy     time/iter
    56  1.0113e-02  5.3532e-02  4.7405e-02  7.2125e-01  1.0031e-02  0:00:07 1944
    57  1.0653e-02  5.4917e-02  4.7029e-02  7.2571e-01  1.0607e-02  0:00:06 1943
    58  1.1269e-02  5.6191e-02  4.6455e-02  7.3839e-01  1.1250e-02  0:06:33 1942
    59  1.1913e-02  5.7321e-02  4.5681e-02  7.5698e-01  1.1914e-02  0:05:14 1941
    60  1.2551e-02  5.8276e-02  4.4715e-02  7.7973e-01  1.2566e-02  0:04:11 1940
    61  1.3158e-02  5.9026e-02  4.3561e-02  8.0595e-01  1.3181e-02  0:03:21 1939
    62  1.3720e-02  5.9593e-02  4.2215e-02  8.3008e-01  1.3747e-02  0:02:41 1938
    63  1.4220e-02  5.9930e-02  4.0723e-02  8.5301e-01  1.4248e-02  0:02:08 1937
    64  1.4643e-02  5.9950e-02  3.9101e-02  8.7535e-01  1.4670e-02  0:01:43 1936
    65  1.4974e-02  5.9662e-02  3.7333e-02  8.9329e-01  1.4998e-02  0:01:22 1935
    66  1.5187e-02  5.9065e-02  3.5412e-02  9.0229e-01  1.5207e-02  0:01:06 1934

  iter  continuity  x-velocity  y-velocity  z-velocity      energy     time/iter
    67  1.5270e-02  5.8103e-02  3.3376e-02  9.0152e-01  1.5285e-02  0:00:52 1933
    68  1.5238e-02  5.7059e-02  3.1230e-02  8.9273e-01  1.5246e-02  0:00:42 1932
    69  1.5065e-02  5.5652e-02  2.9070e-02  8.7720e-01  1.5067e-02  0:00:34 1931
    70  1.4744e-02  5.4031e-02  2.6900e-02  8.5683e-01  1.4740e-02  0:00:27 1930
    71  1.4279e-02  5.2280e-02  2.4786e-02  8.3413e-01  1.4269e-02  0:00:21 1929
    72  1.3662e-02  4.9924e-02  2.2925e-02  8.0768e-01  1.3647e-02  0:00:17 1928
    73  1.2908e-02  4.7586e-02  2.1103e-02  7.8463e-01  1.2889e-02  0:00:14 1927
    74  1.2022e-02  4.5201e-02  1.9427e-02  7.6566e-01  1.1998e-02  0:00:11 1926
    75  1.1010e-02  4.2977e-02  1.7934e-02  7.4838e-01  1.0984e-02  0:00:09 1925
    76  9.9169e-03  4.0496e-02  1.6843e-02  7.3613e-01  9.8904e-03  0:00:07 1924
    77  8.7978e-03  3.8120e-02  1.6145e-02  7.3278e-01  8.7717e-03  0:00:06 1923

  iter  continuity  x-velocity  y-velocity  z-velocity      energy     time/iter
    78  7.7220e-03  3.6113e-02  1.5741e-02  7.3293e-01  7.6987e-03  0:06:29 1922
    79  6.8010e-03  3.4496e-02  1.5715e-02  7.4066e-01  6.7831e-03  0:05:11 1921
    80  6.1728e-03  3.3179e-02  1.5997e-02  7.5362e-01  6.1627e-03  0:04:09 1920
    81  6.0014e-03  3.2555e-02  1.6373e-02  7.7033e-01  6.0001e-03  0:03:19 1919
    82  6.4350e-03  3.2507e-02  1.7003e-02  7.9100e-01  6.4388e-03  0:02:39 1918
    83  7.3052e-03  3.2669e-02  1.7682e-02  8.1434e-01  7.3090e-03  0:02:07 1917
    84  8.4605e-03  3.3119e-02  1.8342e-02  8.3905e-01  8.4603e-03  0:01:42 1916
    85  9.8174e-03  3.3919e-02  1.8926e-02  8.6534e-01  9.8102e-03  0:01:21 1915
    86  1.1214e-02  3.4957e-02  1.9374e-02  8.8897e-01  1.1198e-02  0:01:05 1914
    87  1.2632e-02  3.6071e-02  1.9677e-02  9.1495e-01  1.2605e-02  0:00:52 1913
    88  1.3998e-02  3.7249e-02  1.9844e-02  9.3740e-01  1.3960e-02  0:00:42 1912

  iter  continuity  x-velocity  y-velocity  z-velocity      energy     time/iter
    89  1.5278e-02  3.8301e-02  1.9874e-02  9.5535e-01  1.5226e-02  0:00:33 1911
    90  1.6456e-02  3.9226e-02  1.9761e-02  9.6102e-01  1.6390e-02  0:00:27 1910
    91  1.7503e-02  3.9959e-02  1.9522e-02  9.5624e-01  1.7423e-02  0:00:21 1909
    92  1.8407e-02  4.0440e-02  1.9139e-02  9.3867e-01  1.8312e-02  0:00:17 1908
    93  1.9233e-02  4.0775e-02  1.8648e-02  9.2458e-01  1.9124e-02  0:00:14 1907
    94  1.9861e-02  4.0777e-02  1.8086e-02  9.0478e-01  1.9738e-02  0:00:11 1906
    95  2.0309e-02  4.0564e-02  1.7509e-02  8.8479e-01  2.0174e-02  0:00:09 1905
    96  2.0636e-02  4.0033e-02  1.6991e-02  8.7342e-01  2.0489e-02  0:00:07 1904
    97  2.0883e-02  3.9202e-02  1.6594e-02  8.5722e-01  2.0727e-02  0:00:06 1903
    98  2.0999e-02  3.8239e-02  1.6346e-02  8.5943e-01  2.0836e-02  0:00:04 1902
    99  2.0815e-02  3.7008e-02  1.6357e-02  8.9424e-01  2.0648e-02  0:06:24 1901

  iter  continuity  x-velocity  y-velocity  z-velocity      energy     time/iter
   100  2.0498e-02  3.5674e-02  1.6683e-02  9.1280e-01  2.0329e-02  0:05:07 1900
   101  2.0001e-02  3.4176e-02  1.7335e-02  9.1353e-01  1.9833e-02  0:04:05 1899
   102  1.9397e-02  3.2598e-02  1.8265e-02  9.0317e-01  1.9233e-02  0:03:16 1898
   103  1.8790e-02  3.1018e-02  1.9427e-02  8.8701e-01  1.8633e-02  0:02:37 1897
   104  1.8203e-02  2.9541e-02  2.0774e-02  9.1462e-01  1.8057e-02  0:02:05 1896
   105  1.7674e-02  2.8292e-02  2.2226e-02  9.2918e-01  1.7541e-02  0:01:40 1895
   106  1.7169e-02  2.7313e-02  2.3710e-02  9.3786e-01  1.7053e-02  0:01:20 1894
   107  1.6742e-02  2.6663e-02  2.5205e-02  9.6660e-01  1.6644e-02  0:01:04 1893
   108  1.6384e-02  2.6357e-02  2.6647e-02  1.0039e+00  1.6306e-02  0:00:51 1892
   109  1.6118e-02  2.6600e-02  2.7943e-02  1.0431e+00  1.6059e-02  0:00:41 1891
   110  1.5916e-02  2.7016e-02  2.9129e-02  1.0615e+00  1.5874e-02  0:00:33 1890

  iter  continuity  x-velocity  y-velocity  z-velocity      energy     time/iter
   111  1.5788e-02  2.7908e-02  3.0076e-02  1.1153e+00  1.5762e-02  0:00:26 1889
   112  1.5740e-02  2.9199e-02  3.0792e-02  1.1501e+00  1.5726e-02  0:00:21 1888
   113  1.5772e-02  3.0817e-02  3.1295e-02  1.1711e+00  1.5767e-02  0:00:17 1887
   114  1.5777e-02  3.2597e-02  3.1575e-02  1.1237e+00  1.5777e-02  0:00:13 1886
   115  1.5827e-02  3.4468e-02  3.1638e-02  1.1454e+00  1.5828e-02  0:00:11 1885
   116  1.5967e-02  3.6391e-02  3.1498e-02  1.1619e+00  1.5965e-02  0:00:09 1884
   117  1.6214e-02  3.8393e-02  3.1165e-02  1.2040e+00  1.6206e-02  0:00:07 1883
   118  1.6432e-02  4.0283e-02  3.0678e-02  1.1963e+00  1.6414e-02  0:00:05 1882
   119  1.6611e-02  4.1985e-02  3.0069e-02  1.2151e+00  1.6581e-02  0:06:21 1881
   120  1.6846e-02  4.3537e-02  2.9383e-02  1.2289e+00  1.6800e-02  0:05:04 1880
   121  1.7257e-02  4.4946e-02  2.8682e-02  1.2545e+00  1.7193e-02  0:04:03 1879

  iter  continuity  x-velocity  y-velocity  z-velocity      energy     time/iter
   122  1.7727e-02  4.6071e-02  2.8013e-02  1.3029e+00  1.7644e-02  0:03:15 1878
   123  1.8304e-02  4.6860e-02  2.7384e-02  1.3546e+00  1.8201e-02  0:02:36 1877
   124  1.9025e-02  4.7394e-02  2.6824e-02  1.4167e+00  1.8902e-02  0:02:04 1876
   125  1.9802e-02  4.7657e-02  2.6397e-02  1.4843e+00  1.9660e-02  0:01:39 1875
   126  2.0614e-02  4.7649e-02  2.6155e-02  1.5570e+00  2.0453e-02  0:01:20 1874
   127  2.1356e-02  4.7334e-02  2.6119e-02  1.6305e+00  2.1179e-02  0:01:04 1873
   128  2.2070e-02  4.6703e-02  2.6311e-02  1.7010e+00  2.1879e-02  0:00:51 1872
   129  2.2651e-02  4.5843e-02  2.6708e-02  1.7730e+00  2.2448e-02  0:00:41 1871
   130  2.2954e-02  4.4679e-02  2.7409e-02  1.8437e+00  2.2740e-02  0:00:33 1870
   131  2.2964e-02  4.3448e-02  2.8216e-02  1.9049e+00  2.2741e-02  0:00:26 1869
   132  2.2573e-02  4.2113e-02  2.9107e-02  1.9417e+00  2.2341e-02  0:00:21 1868

  iter  continuity  x-velocity  y-velocity  z-velocity      energy     time/iter
   133  2.1791e-02  4.0631e-02  3.0126e-02  1.9508e+00  2.1553e-02  0:00:17 1867
   134  2.0678e-02  3.8974e-02  3.1293e-02  1.9511e+00  2.0433e-02  0:00:13 1866
   135  1.9476e-02  3.7329e-02  3.2507e-02  1.9393e+00  1.9228e-02  0:00:11 1865
   136  1.8111e-02  3.6044e-02  3.3645e-02  1.9008e+00  1.7860e-02  0:00:08 1864
   137  1.6844e-02  3.5011e-02  3.4718e-02  1.8725e+00  1.6595e-02  0:00:07 1863
   138  1.5915e-02  3.4291e-02  3.5681e-02  1.8666e+00  1.5675e-02  0:00:05 1862
   139  1.5301e-02  3.4123e-02  3.6454e-02  1.8680e+00  1.5077e-02  0:06:17 1861
   140  1.4877e-02  3.4034e-02  3.7197e-02  1.8738e+00  1.4675e-02  0:05:01 1860
   141  1.4633e-02  3.4260e-02  3.7803e-02  1.9057e+00  1.4455e-02  0:04:01 1859
   142  1.4567e-02  3.4993e-02  3.8220e-02  1.9630e+00  1.4418e-02  0:03:12 1858
   143  1.4808e-02  3.6259e-02  3.8453e-02  2.0537e+00  1.4691e-02  0:02:34 1857

  iter  continuity  x-velocity  y-velocity  z-velocity      energy     time/iter
   144  1.5433e-02  3.7873e-02  3.8570e-02  2.1633e+00  1.5346e-02  0:02:03 1856
   145  1.6488e-02  3.9687e-02  3.8604e-02  2.2866e+00  1.6428e-02  0:01:38 1855
   146  1.7838e-02  4.1563e-02  3.8519e-02  2.4666e+00  1.7798e-02  0:01:19 1854
   147  1.9173e-02  4.3485e-02  3.8437e-02  2.6254e+00  1.9149e-02  0:01:03 1853
   148  2.0321e-02  4.5213e-02  3.8406e-02  2.7740e+00  2.0307e-02  0:00:50 1852
   149  2.1018e-02  4.6899e-02  3.8453e-02  2.8644e+00  2.1011e-02  0:00:40 1851
   150  2.1110e-02  4.8593e-02  3.8439e-02  2.8461e+00  2.1107e-02  0:00:32 1850
   151  2.0576e-02  5.0450e-02  3.8178e-02  2.8015e+00  2.0578e-02  0:00:26 1849
   152  1.9750e-02  5.2414e-02  3.7469e-02  2.6367e+00  1.9756e-02  0:00:21 1848
   153  1.8739e-02  5.3935e-02  3.6290e-02  2.4347e+00  1.8749e-02  0:00:16 1847
   154  1.8049e-02  5.4819e-02  3.4681e-02  2.2523e+00  1.8061e-02  0:00:13 1846

  iter  continuity  x-velocity  y-velocity  z-velocity      energy     time/iter
   155  1.7890e-02  5.4899e-02  3.2734e-02  2.0910e+00  1.7902e-02  0:00:11 1845
   156  1.8394e-02  5.4235e-02  3.0665e-02  2.0020e+00  1.8402e-02  0:00:08 1844
   157  1.9270e-02  5.2944e-02  2.8602e-02  1.9995e+00  1.9271e-02  0:00:07 1843
   158  2.0212e-02  5.1340e-02  2.6605e-02  2.0565e+00  2.0205e-02  0:00:05 1842
   159  2.0959e-02  4.9382e-02  2.4697e-02  2.1291e+00  2.0945e-02  0:06:12 1841
   160  2.1343e-02  4.7430e-02  2.3056e-02  2.2035e+00  2.1322e-02  0:04:58 1840
   161  2.1303e-02  4.5409e-02  2.1652e-02  2.2735e+00  2.1277e-02  0:03:58 1839
   162  2.0902e-02  4.3439e-02  2.0485e-02  2.2963e+00  2.0872e-02  0:03:10 1838
   163  2.0337e-02  4.1549e-02  1.9551e-02  2.2968e+00  2.0303e-02  0:02:32 1837
   164  1.9656e-02  3.9697e-02  1.8802e-02  2.2365e+00  1.9619e-02  0:02:02 1836
   165  1.9000e-02  3.8043e-02  1.8246e-02  2.1637e+00  1.8960e-02  0:01:37 1835

  iter  continuity  x-velocity  y-velocity  z-velocity      energy     time/iter
   166  1.8436e-02  3.6604e-02  1.7901e-02  2.0611e+00  1.8394e-02  0:01:18 1834
   167  1.7939e-02  3.5399e-02  1.7610e-02  1.9601e+00  1.7897e-02  0:01:02 1833
   168  1.7587e-02  3.4348e-02  1.7333e-02  1.8863e+00  1.7545e-02  0:00:50 1832
   169  1.7406e-02  3.3628e-02  1.7095e-02  1.8246e+00  1.7366e-02  0:00:40 1831
   170  1.7271e-02  3.3105e-02  1.6838e-02  1.7741e+00  1.7234e-02  0:00:32 1830
   171  1.7017e-02  3.2667e-02  1.6517e-02  1.7287e+00  1.6982e-02  0:00:25 1829
   172  1.6811e-02  3.2365e-02  1.6210e-02  1.6855e+00  1.6780e-02  0:00:20 1828
   173  1.6672e-02  3.2347e-02  1.5958e-02  1.6396e+00  1.6644e-02  0:00:16 1827
   174  1.6590e-02  3.2438e-02  1.5726e-02  1.6018e+00  1.6565e-02  0:00:13 1826
   175  1.6484e-02  3.2387e-02  1.5506e-02  1.5770e+00  1.6462e-02  0:00:10 1825
   176  1.6334e-02  3.2103e-02  1.5293e-02  1.5473e+00  1.6315e-02  0:00:08 1824

  iter  continuity  x-velocity  y-velocity  z-velocity      energy     time/iter
   177  1.6149e-02  3.1747e-02  1.5131e-02  1.5190e+00  1.6132e-02  0:00:07 1823
   178  1.5865e-02  3.1364e-02  1.4961e-02  1.4881e+00  1.5850e-02  0:00:05 1822
   179  1.5570e-02  3.0962e-02  1.4819e-02  1.4647e+00  1.5557e-02  0:00:04 1821
   180  1.5364e-02  3.0653e-02  1.4764e-02  1.4480e+00  1.5354e-02  0:06:07 1820
   181  1.5306e-02  3.0512e-02  1.4727e-02  1.4395e+00  1.5296e-02  0:04:54 1819
   182  1.5375e-02  3.0454e-02  1.4659e-02  1.4311e+00  1.5367e-02  0:03:55 1818
   183  1.5679e-02  3.0422e-02  1.4516e-02  1.4313e+00  1.5672e-02  0:03:08 1817
   184  1.6152e-02  3.0497e-02  1.4300e-02  1.4595e+00  1.6146e-02  0:02:30 1816
   185  1.6741e-02  3.0598e-02  1.4039e-02  1.4925e+00  1.6734e-02  0:02:00 1815
   186  1.7248e-02  3.0649e-02  1.3816e-02  1.5090e+00  1.7241e-02  0:01:36 1814
   187  1.7709e-02  3.0707e-02  1.3627e-02  1.5305e+00  1.7701e-02  0:01:17 1813

  iter  continuity  x-velocity  y-velocity  z-velocity      energy     time/iter
   188  1.7942e-02  3.0658e-02  1.3469e-02  1.5338e+00  1.7932e-02  0:01:01 1812
   189  1.7918e-02  3.0588e-02  1.3347e-02  1.5385e+00  1.7907e-02  0:00:49 1811
   190  1.7845e-02  3.0439e-02  1.3294e-02  1.5730e+00  1.7833e-02  0:00:39 1810
   191  1.7705e-02  3.0111e-02  1.3238e-02  1.6433e+00  1.7691e-02  0:00:31 1809
   192  1.7962e-02  2.9567e-02  1.3204e-02  1.7682e+00  1.7947e-02  0:00:25 1808
   193  1.8368e-02  2.8932e-02  1.3209e-02  1.9175e+00  1.8351e-02  0:00:20 1807
   194  1.9191e-02  2.8366e-02  1.3288e-02  2.1296e+00  1.9172e-02  0:00:16 1806
   195  2.0466e-02  2.8033e-02  1.3503e-02  2.3949e+00  2.0446e-02  0:00:13 1805
   196  2.2060e-02  2.8111e-02  1.3992e-02  2.7520e+00  2.2039e-02  0:00:10 1804
   197  2.3839e-02  2.8511e-02  1.4881e-02  3.1500e+00  2.3817e-02  0:00:08 1803
   198  2.5493e-02  2.9100e-02  1.6097e-02  3.5784e+00  2.5470e-02  0:00:07 1802

  iter  continuity  x-velocity  y-velocity  z-velocity      energy     time/iter
   199  2.6662e-02  3.0063e-02  1.7492e-02  4.0076e+00  2.6638e-02  0:00:05 1801
   200  2.7164e-02  3.1372e-02  1.8964e-02  4.4196e+00  2.7140e-02  0:06:04 1800
   201  2.6682e-02  3.3410e-02  2.0310e-02  4.7042e+00  2.6658e-02  0:04:51 1799
   202  2.5754e-02  3.6046e-02  2.1285e-02  4.8141e+00  2.5730e-02  0:03:53 1798
   203  2.4507e-02  3.8510e-02  2.1899e-02  4.7840e+00  2.4485e-02  0:03:06 1797
   204  2.2940e-02  4.0081e-02  2.1917e-02  4.4119e+00  2.2920e-02  0:02:29 1796
   205  2.1484e-02  4.0263e-02  2.1486e-02  4.0365e+00  2.1466e-02  0:01:59 1795
   206  2.0401e-02  3.9477e-02  2.0649e-02  3.6543e+00  2.0385e-02  0:01:35 1794
   207  1.9904e-02  3.7665e-02  1.9645e-02  3.3314e+00  1.9890e-02  0:01:16 1793
   208  1.9901e-02  3.5175e-02  1.8689e-02  3.1721e+00  1.9886e-02  0:01:01 1792
   209  2.0335e-02  3.2516e-02  1.7848e-02  3.1100e+00  2.0319e-02  0:00:49 1791

  iter  continuity  x-velocity  y-velocity  z-velocity      energy     time/iter
   210  2.0869e-02  3.0042e-02  1.7020e-02  3.0262e+00  2.0851e-02  0:00:39 1790
   211  2.1300e-02  2.8108e-02  1.6394e-02  2.9236e+00  2.1280e-02  0:00:31 1789
   212  2.1331e-02  2.6632e-02  1.5901e-02  2.8092e+00  2.1309e-02  0:00:25 1788
   213  2.0443e-02  2.5702e-02  1.5399e-02  2.6627e+00  2.0420e-02  0:00:20 1787
   214  1.8605e-02  2.5301e-02  1.4986e-02  2.5323e+00  1.8581e-02  0:00:16 1786
   215  1.6247e-02  2.5213e-02  1.4632e-02  2.3653e+00  1.6222e-02  0:00:13 1785
   216  1.4430e-02  2.5293e-02  1.4382e-02  2.3427e+00  1.4404e-02  0:00:10 1784
   217  1.3209e-02  2.5460e-02  1.4250e-02  2.3754e+00  1.3183e-02  0:00:08 1783
   218  1.3266e-02  2.5596e-02  1.3990e-02  2.3686e+00  1.3242e-02  0:00:06 1782
   219  1.3679e-02  2.5578e-02  1.3597e-02  2.3753e+00  1.3657e-02  0:00:05 1781
   220  1.3590e-02  2.5301e-02  1.3143e-02  2.4087e+00  1.3570e-02  0:00:04 1780

  iter  continuity  x-velocity  y-velocity  z-velocity      energy     time/iter
   221  1.2998e-02  2.4820e-02  1.2642e-02  2.4690e+00  1.2978e-02  0:05:59 1779
   222  1.2329e-02  2.4327e-02  1.2196e-02  2.5495e+00  1.2311e-02  0:04:47 1778
   223  1.1778e-02  2.3915e-02  1.1888e-02  2.6227e+00  1.1761e-02  0:03:50 1777
   224  1.1542e-02  2.3432e-02  1.1764e-02  2.6639e+00  1.1527e-02  0:03:04 1776
   225  1.1571e-02  2.2928e-02  1.1679e-02  2.7204e+00  1.1558e-02  0:02:27 1775
   226  1.1723e-02  2.2382e-02  1.1512e-02  2.7551e+00  1.1711e-02  0:01:57 1774
   227  1.1911e-02  2.1915e-02  1.1447e-02  2.7576e+00  1.1900e-02  0:01:34 1773
   228  1.1942e-02  2.1638e-02  1.1551e-02  2.7323e+00  1.1932e-02  0:01:15 1772
   229  1.1876e-02  2.1721e-02  1.1797e-02  2.7013e+00  1.1868e-02  0:01:00 1771
   230  1.1689e-02  2.1957e-02  1.2080e-02  2.6391e+00  1.1682e-02  0:00:48 1770
   231  1.1327e-02  2.2041e-02  1.2260e-02  2.5431e+00  1.1321e-02  0:00:38 1769

  iter  continuity  x-velocity  y-velocity  z-velocity      energy     time/iter
   232  1.0783e-02  2.1761e-02  1.2291e-02  2.4360e+00  1.0778e-02  0:00:31 1768
   233  1.0203e-02  2.1663e-02  1.2270e-02  2.3429e+00  1.0199e-02  0:00:25 1767
   234  9.7159e-03  2.1777e-02  1.2248e-02  2.2904e+00  9.7138e-03  0:00:20 1766
   235  9.3226e-03  2.1845e-02  1.2236e-02  2.2646e+00  9.3213e-03  0:00:16 1765
   236  8.9566e-03  2.1844e-02  1.2172e-02  2.2484e+00  8.9558e-03  0:00:13 1764
   237  8.7810e-03  2.1776e-02  1.2006e-02  2.2646e+00  8.7803e-03  0:00:10 1763
   238  8.6971e-03  2.1763e-02  1.1892e-02  2.3472e+00  8.6961e-03  0:00:08 1762
   239  8.5596e-03  2.1737e-02  1.1860e-02  2.4974e+00  8.5579e-03  0:05:59 1761
   240  8.3706e-03  2.1690e-02  1.1855e-02  2.5730e+00  8.3679e-03  0:04:47 1760
   241  8.1680e-03  2.1761e-02  1.1854e-02  2.6907e+00  8.1641e-03  0:03:49 1759
   242  7.9119e-03  2.1686e-02  1.1809e-02  2.8131e+00  7.9062e-03  0:03:03 1758

  iter  continuity  x-velocity  y-velocity  z-velocity      energy     time/iter
   243  7.6997e-03  2.1617e-02  1.1775e-02  2.8783e+00  7.6921e-03  0:02:27 1757
   244  7.6274e-03  2.1631e-02  1.1742e-02  3.0046e+00  7.6174e-03  0:01:57 1756
   245  7.7869e-03  2.1579e-02  1.1614e-02  3.0725e+00  7.7743e-03  0:01:34 1755
   246  8.2938e-03  2.1436e-02  1.1357e-02  3.0653e+00  8.2788e-03  0:01:15 1754
   247  8.9465e-03  2.1115e-02  1.1030e-02  3.0028e+00  8.9292e-03  0:01:00 1753
   248  9.5838e-03  2.0493e-02  1.0698e-02  2.9802e+00  9.5642e-03  0:00:48 1752
   249  1.0003e-02  1.9726e-02  1.0331e-02  3.0080e+00  9.9807e-03  0:00:38 1751
   250  1.0210e-02  1.9000e-02  9.9910e-03  3.0506e+00  1.0185e-02  0:00:31 1750
   251  1.0107e-02  1.8398e-02  9.7880e-03  3.0825e+00  1.0079e-02  0:00:24 1749
   252  9.7622e-03  1.7946e-02  9.4770e-03  3.0842e+00  9.7309e-03  0:00:20 1748
   253  9.1425e-03  1.7438e-02  9.2986e-03  3.0854e+00  9.1066e-03  0:00:16 1747

  iter  continuity  x-velocity  y-velocity  z-velocity      energy     time/iter
   254  8.3961e-03  1.7132e-02  9.2116e-03  3.0625e+00  8.3545e-03  0:00:13 1746
   255  7.8410e-03  1.6983e-02  9.1478e-03  3.0170e+00  7.7934e-03  0:00:10 1745
   256  7.6064e-03  1.6941e-02  9.1292e-03  2.9576e+00  7.5542e-03  0:05:57 1744
   257  7.7394e-03  1.6910e-02  9.1052e-03  2.8835e+00  7.6849e-03  0:04:45 1743
   258  8.0352e-03  1.6814e-02  9.1678e-03  2.7923e+00  7.9797e-03  0:03:48 1742
   259  8.1935e-03  1.6651e-02  9.2929e-03  2.7223e+00  8.1362e-03  0:03:02 1741
   260  8.0758e-03  1.6470e-02  9.3633e-03  2.6715e+00  8.0151e-03  0:02:26 1740
   261  7.6902e-03  1.6336e-02  9.4470e-03  2.6257e+00  7.6245e-03  0:01:57 1739
   262  7.1816e-03  1.6181e-02  9.5938e-03  2.6068e+00  7.1099e-03  0:01:33 1738
   263  6.6878e-03  1.6033e-02  9.7815e-03  2.6132e+00  6.6100e-03  0:01:15 1737
   264  6.3659e-03  1.5913e-02  9.9629e-03  2.6217e+00  6.2835e-03  0:01:00 1736

  iter  continuity  x-velocity  y-velocity  z-velocity      energy     time/iter
   265  6.2541e-03  1.5923e-02  1.0222e-02  2.6442e+00  6.1707e-03  0:00:48 1735
   266  6.2942e-03  1.5952e-02  1.0408e-02  2.6874e+00  6.2124e-03  0:00:38 1734
   267  6.4311e-03  1.6022e-02  1.0686e-02  2.7676e+00  6.3525e-03  0:00:30 1733
   268  6.5438e-03  1.6068e-02  1.0984e-02  2.7986e+00  6.4687e-03  0:00:24 1732
   269  6.5679e-03  1.6052e-02  1.1210e-02  2.8523e+00  6.4958e-03  0:00:19 1731
   270  6.4237e-03  1.5971e-02  1.1406e-02  2.8783e+00  6.3534e-03  0:00:16 1730
   271  6.1716e-03  1.5942e-02  1.1559e-02  2.9607e+00  6.1028e-03  0:00:12 1729
   272  5.9404e-03  1.6006e-02  1.1641e-02  2.9034e+00  5.8738e-03  0:00:10 1728
   273  5.7869e-03  1.6110e-02  1.1744e-02  2.9655e+00  5.7240e-03  0:00:08 1727
   274  5.8667e-03  1.6226e-02  1.1854e-02  3.0889e+00  5.8100e-03  0:00:06 1726
   275  6.2188e-03  1.6399e-02  1.1984e-02  3.2767e+00  6.1702e-03  0:00:05 1725

  iter  continuity  x-velocity  y-velocity  z-velocity      energy     time/iter
   276  6.7875e-03  1.6578e-02  1.2075e-02  3.5765e+00  6.7474e-03  0:05:49 1724
   277  7.4682e-03  1.6825e-02  1.2128e-02  3.9297e+00  7.4357e-03  0:04:39 1723
   278  8.1964e-03  1.7110e-02  1.2155e-02  4.3685e+00  8.1702e-03  0:03:43 1722
   279  8.9575e-03  1.7416e-02  1.2124e-02  4.9084e+00  8.9364e-03  0:02:58 1721
   280  9.6043e-03  1.7740e-02  1.2123e-02  5.5394e+00  9.5871e-03  0:02:23 1720
   281  1.0089e-02  1.8115e-02  1.2176e-02  6.1501e+00  1.0074e-02  0:01:54 1719
   282  1.0487e-02  1.8612e-02  1.2293e-02  6.7089e+00  1.0474e-02  0:01:31 1718
   283  1.0547e-02  1.9234e-02  1.2422e-02  6.8698e+00  1.0536e-02  0:01:13 1717
   284  1.0549e-02  1.9979e-02  1.2520e-02  6.8929e+00  1.0538e-02  0:00:58 1716
   285  1.0155e-02  2.0793e-02  1.2519e-02  6.5335e+00  1.0144e-02  0:00:47 1715
   286  9.3049e-03  2.1419e-02  1.2374e-02  6.3411e+00  9.2923e-03  0:00:37 1714

  iter  continuity  x-velocity  y-velocity  z-velocity      energy     time/iter
   287  8.7616e-03  2.1405e-02  1.2023e-02  6.0790e+00  8.7481e-03  0:00:30 1713
   288  8.6697e-03  2.0821e-02  1.1458e-02  6.0381e+00  8.6561e-03  0:00:24 1712
   289  8.9757e-03  1.9730e-02  1.0665e-02  6.0400e+00  8.9623e-03  0:00:19 1711
   290  9.5007e-03  1.8381e-02  9.7715e-03  6.0425e+00  9.4876e-03  0:00:15 1710
   291  1.0189e-02  1.7077e-02  9.1189e-03  5.9802e+00  1.0176e-02  0:00:12 1709
   292  1.0703e-02  1.5905e-02  8.4655e-03  5.8587e+00  1.0690e-02  0:00:10 1708
   293  1.0754e-02  1.5125e-02  7.8768e-03  5.7034e+00  1.0740e-02  0:00:08 1707
   294  1.0288e-02  1.4704e-02  7.3878e-03  5.5091e+00  1.0273e-02  0:00:06 1706
   295  9.8211e-03  1.4451e-02  7.0475e-03  5.4318e+00  9.8057e-03  0:05:46 1705
   296  9.2285e-03  1.4203e-02  6.7712e-03  5.4922e+00  9.2120e-03  0:04:37 1704
   297  8.5971e-03  1.3904e-02  6.5065e-03  5.5186e+00  8.5791e-03  0:03:41 1703

  iter  continuity  x-velocity  y-velocity  z-velocity      energy     time/iter
   298  8.1176e-03  1.3481e-02  6.2174e-03  5.7342e+00  8.0979e-03  0:02:57 1702
   299  7.9269e-03  1.3073e-02  5.9208e-03  5.8618e+00  7.9059e-03  0:02:21 1701
   300  7.8610e-03  1.2625e-02  5.5384e-03  5.9428e+00  7.8384e-03  0:01:53 1700
   301  7.9171e-03  1.2255e-02  5.1750e-03  6.0190e+00  7.8931e-03  0:01:30 1699
   302  8.1185e-03  1.1975e-02  4.8929e-03  6.0611e+00  8.0934e-03  0:01:12 1698
   303  8.1459e-03  1.1690e-02  4.6972e-03  6.0772e+00  8.1187e-03  0:00:58 1697
   304  8.0525e-03  1.1402e-02  4.5688e-03  6.0295e+00  8.0227e-03  0:00:46 1696
   305  7.7990e-03  1.1082e-02  4.5185e-03  6.0293e+00  7.7656e-03  0:00:37 1695
   306  7.3666e-03  1.0742e-02  4.4732e-03  5.9234e+00  7.3284e-03  0:00:30 1694
   307  6.9582e-03  1.0431e-02  4.4907e-03  5.7500e+00  6.9147e-03  0:00:24 1693
   308  6.6527e-03  1.0128e-02  4.5780e-03  5.7070e+00  6.6043e-03  0:00:19 1692

  iter  continuity  x-velocity  y-velocity  z-velocity      energy     time/iter
   309  6.4558e-03  9.8382e-03  4.7227e-03  5.6044e+00  6.4030e-03  0:00:15 1691
   310  6.4104e-03  9.5808e-03  4.9094e-03  5.5138e+00  6.3545e-03  0:00:12 1690
   311  6.4908e-03  9.3704e-03  5.1207e-03  5.3886e+00  6.4329e-03  0:00:10 1689
   312  6.5421e-03  9.2023e-03  5.3501e-03  5.3058e+00  6.4823e-03  0:00:08 1688
   313  6.4982e-03  9.0553e-03  5.5983e-03  5.2466e+00  6.4358e-03  0:00:06 1687
   314  6.3735e-03  8.8582e-03  5.8876e-03  5.2124e+00  6.3080e-03  0:05:42 1686
   315  6.1192e-03  8.6534e-03  6.1996e-03  5.2032e+00  6.0495e-03  0:04:34 1685
   316  5.7862e-03  8.4679e-03  6.5138e-03  5.1824e+00  5.7114e-03  0:03:39 1684
   317  5.4865e-03  8.3271e-03  6.8276e-03  5.2769e+00  5.4069e-03  0:02:55 1683
   318  5.3041e-03  8.2393e-03  7.1482e-03  5.4805e+00  5.2217e-03  0:02:20 1682
   319  5.2192e-03  8.2136e-03  7.4650e-03  5.8174e+00  5.1361e-03  0:01:52 1681

  iter  continuity  x-velocity  y-velocity  z-velocity      energy     time/iter
   320  5.1959e-03  8.2266e-03  7.7673e-03  6.1535e+00  5.1137e-03  0:01:29 1680
   321  5.2157e-03  8.2563e-03  8.0479e-03  6.4854e+00  5.1356e-03  0:01:11 1679
   322  5.2233e-03  8.2937e-03  8.3059e-03  6.7024e+00  5.1457e-03  0:00:57 1678
   323  5.1654e-03  8.3226e-03  8.5350e-03  6.7665e+00  5.0897e-03  0:00:46 1677
   324  5.0054e-03  8.3336e-03  8.7328e-03  6.6335e+00  4.9304e-03  0:00:37 1676
   325  4.8300e-03  8.3314e-03  8.9089e-03  6.4238e+00  4.7561e-03  0:00:29 1675
   326  4.7025e-03  8.3289e-03  9.0633e-03  6.2471e+00  4.6305e-03  0:00:23 1674
   327  4.6982e-03  8.3298e-03  9.1414e-03  6.1960e+00  4.6302e-03  0:00:19 1673
   328  4.7651e-03  8.4329e-03  9.2021e-03  6.2777e+00  4.7022e-03  0:00:15 1672
   329  4.7416e-03  8.5949e-03  9.2393e-03  6.3701e+00  4.6826e-03  0:00:12 1671
   330  4.6103e-03  8.7941e-03  9.2437e-03  6.5321e+00  4.5540e-03  0:00:10 1670

  iter  continuity  x-velocity  y-velocity  z-velocity      energy     time/iter
   331  4.3804e-03  9.0245e-03  9.2205e-03  6.6801e+00  4.3258e-03  0:00:08 1669
   332  4.1881e-03  9.2610e-03  9.1595e-03  6.7930e+00  4.1355e-03  0:00:06 1668
   333  3.9033e-03  9.4752e-03  9.0565e-03  6.8514e+00  3.8515e-03  0:05:38 1667
   334  3.5649e-03  9.6527e-03  8.9134e-03  6.8870e+00  3.5128e-03  0:04:30 1666
   335  3.3420e-03  9.7887e-03  8.7293e-03  6.9443e+00  3.2910e-03  0:03:36 1665
   336  3.1858e-03  9.8951e-03  8.5143e-03  7.1036e+00  3.1366e-03  0:02:53 1664
   337  3.0938e-03  9.9616e-03  8.2704e-03  7.3462e+00  3.0473e-03  0:02:18 1663
   338  3.0346e-03  9.9888e-03  8.0036e-03  7.6105e+00  2.9907e-03  0:01:51 1662
   339  2.9233e-03  9.9718e-03  7.7189e-03  7.8124e+00  2.8809e-03  0:01:28 1661
   340  2.8152e-03  9.9116e-03  7.4206e-03  7.9788e+00  2.7741e-03  0:01:11 1660
   341  2.7103e-03  9.8064e-03  7.1102e-03  8.1901e+00  2.6702e-03  0:00:56 1659

  iter  continuity  x-velocity  y-velocity  z-velocity      energy     time/iter
   342  2.6055e-03  9.6616e-03  6.7945e-03  8.4109e+00  2.5658e-03  0:00:45 1658
   343  2.5249e-03  9.4822e-03  6.4788e-03  8.6958e+00  2.4856e-03  0:00:36 1657
   344  2.4818e-03  9.2739e-03  6.1656e-03  8.9831e+00  2.4431e-03  0:00:29 1656
   345  2.5032e-03  9.0379e-03  5.8573e-03  9.3038e+00  2.4655e-03  0:00:23 1655
   346  2.5178e-03  8.7766e-03  5.5589e-03  9.6327e+00  2.4807e-03  0:00:18 1654
   347  2.5149e-03  8.4914e-03  5.3068e-03  9.9566e+00  2.4776e-03  0:00:15 1653
   348  2.5104e-03  8.2000e-03  5.0183e-03  1.0224e+01  2.4726e-03  0:00:12 1652
   349  2.5110e-03  7.8998e-03  4.7333e-03  1.0360e+01  2.4725e-03  0:00:09 1651
   350  2.4479e-03  7.5996e-03  4.4890e-03  1.0301e+01  2.4075e-03  0:00:08 1650
   351  2.3543e-03  7.3063e-03  4.2763e-03  1.0066e+01  2.3109e-03  0:05:36 1649
   352  2.2707e-03  7.0260e-03  4.0912e-03  9.7634e+00  2.2242e-03  0:04:28 1648

  iter  continuity  x-velocity  y-velocity  z-velocity      energy     time/iter
   353  2.2362e-03  6.7619e-03  3.9338e-03  9.5286e+00  2.1871e-03  0:03:35 1647
   354  2.2910e-03  6.5149e-03  3.8047e-03  9.3606e+00  2.2412e-03  0:02:52 1646
   355  2.4409e-03  6.2817e-03  3.7040e-03  9.3446e+00  2.3920e-03  0:02:17 1645
   356  2.6303e-03  6.0704e-03  3.6286e-03  9.4363e+00  2.5829e-03  0:01:50 1644
   357  2.8029e-03  5.8796e-03  3.5790e-03  9.5773e+00  2.7562e-03  0:01:28 1643
   358  2.9592e-03  5.6997e-03  3.5598e-03  9.7023e+00  2.9128e-03  0:01:10 1642
   359  3.1113e-03  5.5352e-03  3.5625e-03  9.9464e+00  3.0650e-03  0:00:56 1641
   360  3.1255e-03  5.3883e-03  3.5847e-03  1.0087e+01  3.0771e-03  0:00:45 1640
   361  3.0508e-03  5.2601e-03  3.6267e-03  1.0134e+01  2.9987e-03  0:00:36 1639
   362  2.9666e-03  5.1518e-03  3.6866e-03  1.0219e+01  2.9104e-03  0:00:29 1638
   363  2.9374e-03  5.0639e-03  3.7609e-03  1.0391e+01  2.8778e-03  0:00:23 1637

  iter  continuity  x-velocity  y-velocity  z-velocity      energy     time/iter
   364  2.9487e-03  4.9985e-03  3.8466e-03  1.0515e+01  2.8862e-03  0:00:18 1636
   365  2.9645e-03  4.9533e-03  3.9404e-03  1.0686e+01  2.8993e-03  0:00:15 1635
   366  3.0016e-03  4.9346e-03  4.0395e-03  1.0939e+01  2.9341e-03  0:00:12 1634
   367  3.0723e-03  4.9195e-03  4.1443e-03  1.1323e+01  3.0031e-03  0:00:09 1633
   368  3.1739e-03  4.9093e-03  4.2502e-03  1.1801e+01  3.1038e-03  0:00:07 1632
   369  3.2915e-03  4.9068e-03  4.3560e-03  1.2341e+01  3.2206e-03  0:05:32 1631
   370  3.3963e-03  4.9099e-03  4.4619e-03  1.2802e+01  3.3245e-03  0:04:26 1630
   371  3.4467e-03  4.9202e-03  4.5674e-03  1.3144e+01  3.3728e-03  0:03:32 1629
   372  3.4634e-03  4.9330e-03  4.6730e-03  1.3353e+01  3.3868e-03  0:02:50 1628
   373  3.4539e-03  4.9439e-03  4.7791e-03  1.3364e+01  3.3739e-03  0:02:16 1627
   374  3.4308e-03  4.9620e-03  4.8862e-03  1.3207e+01  3.3470e-03  0:01:49 1626

  iter  continuity  x-velocity  y-velocity  z-velocity      energy     time/iter
   375  3.4241e-03  4.9830e-03  4.9955e-03  1.3309e+01  3.3369e-03  0:01:27 1625
   376  3.4502e-03  5.0036e-03  5.1077e-03  1.3598e+01  3.3605e-03  0:01:09 1624
   377  3.5158e-03  5.0274e-03  5.2237e-03  1.3903e+01  3.4248e-03  0:00:55 1623
   378  3.5960e-03  5.0521e-03  5.3443e-03  1.4057e+01  3.5040e-03  0:00:44 1622
   379  3.6804e-03  5.0754e-03  5.4700e-03  1.4186e+01  3.5878e-03  0:00:35 1621
   380  3.7527e-03  5.0975e-03  5.6008e-03  1.4296e+01  3.6595e-03  0:00:28 1620
   381  3.7941e-03  5.1171e-03  5.7384e-03  1.4212e+01  3.6996e-03  0:00:23 1619
   382  3.8176e-03  5.1448e-03  5.8869e-03  1.4086e+01  3.7216e-03  0:00:18 1618
   383  3.8420e-03  5.1798e-03  6.0477e-03  1.4140e+01  3.7448e-03  0:00:14 1617
   384  3.8628e-03  5.1999e-03  6.1935e-03  1.4379e+01  3.7647e-03  0:00:12 1616
   385  3.8618e-03  5.2169e-03  6.3301e-03  1.4677e+01  3.7627e-03  0:00:09 1615

  iter  continuity  x-velocity  y-velocity  z-velocity      energy     time/iter
   386  3.8429e-03  5.2497e-03  6.4858e-03  1.5106e+01  3.7426e-03  0:00:07 1614
   387  3.8080e-03  5.3040e-03  6.6464e-03  1.5809e+01  3.7065e-03  0:00:06 1613
   388  3.7351e-03  5.3688e-03  6.8093e-03  1.6917e+01  3.6318e-03  0:05:27 1612
   389  3.6467e-03  5.4465e-03  6.9747e-03  1.8210e+01  3.5417e-03  0:04:22 1611
   390  3.5709e-03  5.5353e-03  7.1419e-03  1.9445e+01  3.4648e-03  0:03:29 1610
   391  3.5399e-03  5.6360e-03  7.3102e-03  2.0334e+01  3.4346e-03  0:02:47 1609
   392  3.5508e-03  5.7503e-03  7.4782e-03  2.0894e+01  3.4481e-03  0:02:14 1608
   393  3.5856e-03  5.8836e-03  7.6436e-03  2.1274e+01  3.4865e-03  0:01:47 1607
   394  3.5896e-03  6.0319e-03  7.8055e-03  2.1067e+01  3.4938e-03  0:01:25 1606
   395  3.6251e-03  6.2004e-03  7.9662e-03  2.0734e+01  3.5337e-03  0:01:08 1605
   396  3.5927e-03  6.3889e-03  8.1117e-03  1.9828e+01  3.5044e-03  0:00:55 1604

  iter  continuity  x-velocity  y-velocity  z-velocity      energy     time/iter
   397  3.4801e-03  6.5988e-03  8.2401e-03  1.8695e+01  3.3933e-03  0:00:44 1603
   398  3.2875e-03  6.8289e-03  8.3532e-03  1.7674e+01  3.2006e-03  0:00:35 1602
   399  3.0900e-03  7.0750e-03  8.4498e-03  1.7323e+01  3.0031e-03  0:00:28 1601
   400  2.9012e-03  7.3374e-03  8.5269e-03  1.7627e+01  2.8147e-03  0:00:22 1600
   401  2.7427e-03  7.6089e-03  8.5815e-03  1.8414e+01  2.6578e-03  0:00:18 1599
   402  2.6085e-03  7.8821e-03  8.6112e-03  1.9582e+01  2.5260e-03  0:00:14 1598
   403  2.5074e-03  8.1498e-03  8.6138e-03  2.0959e+01  2.4284e-03  0:00:11 1597
   404  2.4351e-03  8.4050e-03  8.5877e-03  2.2408e+01  2.3606e-03  0:00:09 1596
   405  2.4132e-03  8.6389e-03  8.5318e-03  2.3768e+01  2.3447e-03  0:00:07 1595
   406  2.4271e-03  8.8451e-03  8.4462e-03  2.4785e+01  2.3651e-03  0:00:06 1594
   407  2.4565e-03  9.0218e-03  8.3311e-03  2.5249e+01  2.4009e-03  0:00:05 1593

  iter  continuity  x-velocity  y-velocity  z-velocity      energy     time/iter
   408  2.4838e-03  9.1677e-03  8.1872e-03  2.5236e+01  2.4340e-03  0:05:22 1592
   409  2.5054e-03  9.2799e-03  8.0158e-03  2.4803e+01  2.4606e-03  0:04:18 1591
   410  2.4770e-03  9.3605e-03  7.8183e-03  2.4034e+01  2.4359e-03  0:03:26 1590
   411  2.4097e-03  9.4063e-03  7.5960e-03  2.3045e+01  2.3714e-03  0:02:45 1589
   412  2.3182e-03  9.4185e-03  7.3506e-03  2.2023e+01  2.2820e-03  0:02:12 1588
   413  2.2139e-03  9.3998e-03  7.0839e-03  2.1225e+01  2.1793e-03  0:01:45 1587
   414  2.1184e-03  9.3507e-03  6.7984e-03  2.0707e+01  2.0853e-03  0:01:24 1586
   415  2.0407e-03  9.2715e-03  6.4970e-03  2.0357e+01  2.0089e-03  0:01:07 1585
   416  1.9909e-03  9.1629e-03  6.1826e-03  2.0248e+01  1.9605e-03  0:00:54 1584
   417  1.9602e-03  9.0252e-03  5.8586e-03  2.0218e+01  1.9311e-03  0:00:43 1583
   418  1.9540e-03  8.8610e-03  5.5283e-03  2.0407e+01  1.9262e-03  0:00:34 1582

  iter  continuity  x-velocity  y-velocity  z-velocity      energy     time/iter
   419  1.9757e-03  8.6724e-03  5.1949e-03  2.0868e+01  1.9492e-03  0:00:27 1581
   420  1.9882e-03  8.4617e-03  4.8607e-03  2.1598e+01  1.9626e-03  0:00:22 1580
   421  1.9844e-03  8.2291e-03  4.5291e-03  2.2565e+01  1.9593e-03  0:00:18 1579
   422  1.9670e-03  7.9807e-03  4.2020e-03  2.3662e+01  1.9420e-03  0:00:14 1578
   423  1.9359e-03  7.7168e-03  3.8829e-03  2.4758e+01  1.9107e-03  0:00:11 1577
   424  1.8951e-03  7.4403e-03  3.5741e-03  2.5655e+01  1.8694e-03  0:00:09 1576
   425  1.8544e-03  7.1577e-03  3.2781e-03  2.6251e+01  1.8280e-03  0:00:07 1575
   426  1.8169e-03  6.8718e-03  2.9981e-03  2.6480e+01  1.7897e-03  0:00:06 1574
   427  1.7867e-03  6.5866e-03  2.7377e-03  2.6307e+01  1.7586e-03  0:00:05 1573
   428  1.7655e-03  6.2998e-03  2.5153e-03  2.5829e+01  1.7365e-03  0:05:18 1572
   429  1.7535e-03  6.0248e-03  2.3150e-03  2.5122e+01  1.7234e-03  0:04:14 1571

  iter  continuity  x-velocity  y-velocity  z-velocity      energy     time/iter
   430  1.7511e-03  5.7672e-03  2.1405e-03  2.4376e+01  1.7199e-03  0:03:23 1570
   431  1.7588e-03  5.5308e-03  1.9969e-03  2.3722e+01  1.7266e-03  0:02:43 1569
   432  1.7751e-03  5.3133e-03  1.8881e-03  2.3216e+01  1.7418e-03  0:02:10 1568
   433  1.8042e-03  5.1141e-03  1.8155e-03  2.2863e+01  1.7699e-03  0:01:44 1567
   434  1.8402e-03  4.9462e-03  1.7710e-03  2.2609e+01  1.8050e-03  0:01:23 1566
   435  1.8760e-03  4.8281e-03  1.7468e-03  2.2337e+01  1.8398e-03  0:01:06 1565
   436  1.9122e-03  4.6843e-03  1.7856e-03  2.1988e+01  1.8748e-03  0:00:53 1564
   437  1.9440e-03  4.5428e-03  1.8536e-03  2.1533e+01  1.9053e-03  0:00:42 1563
   438  1.9678e-03  4.4204e-03  1.9412e-03  2.0973e+01  1.9276e-03  0:00:34 1562
   439  1.9869e-03  4.3207e-03  2.0451e-03  2.0396e+01  1.9451e-03  0:00:27 1561
   440  2.0007e-03  4.2385e-03  2.1634e-03  1.9898e+01  1.9573e-03  0:00:22 1560

  iter  continuity  x-velocity  y-velocity  z-velocity      energy     time/iter
   441  2.0084e-03  4.1679e-03  2.2942e-03  1.9486e+01  1.9633e-03  0:00:17 1559
   442  2.0109e-03  4.1021e-03  2.4347e-03  1.9233e+01  1.9639e-03  0:00:14 1558
   443  2.0094e-03  4.0430e-03  2.5817e-03  1.9089e+01  1.9607e-03  0:00:11 1557
   444  2.0021e-03  3.9888e-03  2.7330e-03  1.8976e+01  1.9515e-03  0:00:09 1556
   445  1.9856e-03  3.9336e-03  2.8865e-03  1.8868e+01  1.9330e-03  0:00:07 1555
   446  1.9681e-03  3.8845e-03  3.0404e-03  1.8775e+01  1.9136e-03  0:00:06 1554
   447  1.9452e-03  3.8408e-03  3.1932e-03  1.8755e+01  1.8887e-03  0:00:05 1553
   448  1.9187e-03  3.7980e-03  3.3435e-03  1.8787e+01  1.8603e-03  0:05:14 1552
   449  1.8902e-03  3.7616e-03  3.4896e-03  1.8935e+01  1.8299e-03  0:04:11 1551
   450  1.8589e-03  3.7331e-03  3.6308e-03  1.9137e+01  1.7967e-03  0:03:21 1550
   451  1.8239e-03  3.7132e-03  3.7654e-03  1.9353e+01  1.7599e-03  0:02:40 1549

  iter  continuity  x-velocity  y-velocity  z-velocity      energy     time/iter
   452  1.7907e-03  3.7038e-03  3.8923e-03  1.9574e+01  1.7250e-03  0:02:08 1548
   453  1.7616e-03  3.7041e-03  4.0107e-03  1.9744e+01  1.6945e-03  0:01:43 1547
   454  1.7354e-03  3.7117e-03  4.1200e-03  1.9813e+01  1.6671e-03  0:01:22 1546
   455  1.7225e-03  3.7289e-03  4.2193e-03  1.9838e+01  1.6536e-03  0:01:06 1545
   456  1.7131e-03  3.7552e-03  4.3089e-03  1.9823e+01  1.6438e-03  0:00:52 1544
   457  1.7001e-03  3.7846e-03  4.3885e-03  1.9819e+01  1.6305e-03  0:00:42 1543
   458  1.6979e-03  3.8228e-03  4.4585e-03  1.9821e+01  1.6286e-03  0:00:34 1542
   459  1.6967e-03  3.8676e-03  4.5190e-03  1.9860e+01  1.6277e-03  0:00:27 1541
   460  1.6964e-03  3.9151e-03  4.5704e-03  1.9974e+01  1.6279e-03  0:00:21 1540
   461  1.7052e-03  3.9642e-03  4.6128e-03  2.0151e+01  1.6376e-03  0:00:17 1539
   462  1.7229e-03  4.0159e-03  4.6465e-03  2.0278e+01  1.6566e-03  0:00:14 1538

  iter  continuity  x-velocity  y-velocity  z-velocity      energy     time/iter
   463  1.7439e-03  4.0684e-03  4.6718e-03  2.0305e+01  1.6790e-03  0:00:11 1537
   464  1.7676e-03  4.1196e-03  4.6890e-03  2.0200e+01  1.7041e-03  0:05:16 1536
   465  1.7949e-03  4.1697e-03  4.6984e-03  1.9952e+01  1.7331e-03  0:04:13 1535
   466  1.8273e-03  4.2182e-03  4.7006e-03  1.9587e+01  1.7670e-03  0:03:22 1534
   467  1.8611e-03  4.2641e-03  4.6960e-03  1.9151e+01  1.8026e-03  0:02:41 1533
   468  1.8989e-03  4.3071e-03  4.6854e-03  1.8656e+01  1.8420e-03  0:02:09 1532
   469  1.9407e-03  4.3462e-03  4.6694e-03  1.8154e+01  1.8855e-03  0:01:43 1531
   470  1.9854e-03  4.3811e-03  4.6490e-03  1.7710e+01  1.9319e-03  0:01:23 1530
   471  2.0344e-03  4.4130e-03  4.6249e-03  1.7341e+01  1.9826e-03  0:01:06 1529
   472  2.0856e-03  4.4418e-03  4.5977e-03  1.7072e+01  2.0354e-03  0:00:53 1528
   473  2.1443e-03  4.4675e-03  4.5682e-03  1.6941e+01  2.0959e-03  0:00:42 1527

  iter  continuity  x-velocity  y-velocity  z-velocity      energy     time/iter
   474  2.2145e-03  4.4898e-03  4.5371e-03  1.6955e+01  2.1678e-03  0:00:34 1526
   475  2.2814e-03  4.5081e-03  4.5049e-03  1.7042e+01  2.2363e-03  0:00:27 1525
   476  2.3458e-03  4.5250e-03  4.4717e-03  1.7193e+01  2.3021e-03  0:00:22 1524
   477  2.4130e-03  4.5396e-03  4.4380e-03  1.7409e+01  2.3707e-03  0:00:17 1523
   478  2.4856e-03  4.5528e-03  4.4037e-03  1.7658e+01  2.4446e-03  0:00:14 1522
   479  2.5662e-03  4.5649e-03  4.3692e-03  1.7996e+01  2.5266e-03  0:00:11 1521
   480  2.6420e-03  4.5759e-03  4.3345e-03  1.8329e+01  2.6036e-03  0:00:09 1520
   481  2.7293e-03  4.5861e-03  4.2998e-03  1.8831e+01  2.6921e-03  0:00:07 1519
   482  2.8140e-03  4.5967e-03  4.2652e-03  1.9456e+01  2.7780e-03  0:00:06 1518
   483  2.8828e-03  4.6077e-03  4.2309e-03  2.0059e+01  2.8477e-03  0:00:04 1517
   484  2.9439e-03  4.6180e-03  4.1968e-03  2.0586e+01  2.9096e-03  0:00:04 1516

  iter  continuity  x-velocity  y-velocity  z-velocity      energy     time/iter
   485  3.0053e-03  4.6271e-03  4.1632e-03  2.1150e+01  2.9718e-03  0:05:06 1515
   486  3.0629e-03  4.6360e-03  4.1302e-03  2.1864e+01  3.0301e-03  0:04:05 1514
   487  3.1181e-03  4.6490e-03  4.0981e-03  2.2740e+01  3.0859e-03  0:03:16 1513
   488  3.1739e-03  4.6657e-03  4.0671e-03  2.3709e+01  3.1424e-03  0:02:36 1512
   489  3.2342e-03  4.6817e-03  4.0374e-03  2.4809e+01  3.2034e-03  0:02:05 1511
   490  3.2831e-03  4.6973e-03  4.0092e-03  2.5917e+01  3.2529e-03  0:01:40 1510
   491  3.3177e-03  4.7080e-03  3.9829e-03  2.6927e+01  3.2882e-03  0:01:20 1509
   492  3.3622e-03  4.7146e-03  3.9590e-03  2.8275e+01  3.3334e-03  0:01:04 1508
   493  3.4118e-03  4.7245e-03  3.9383e-03  2.9513e+01  3.3837e-03  0:00:51 1507
   494  3.4809e-03  4.7376e-03  3.9206e-03  3.0884e+01  3.4536e-03  0:00:41 1506
   495  3.5531e-03  4.7471e-03  3.9056e-03  3.2459e+01  3.5266e-03  0:00:33 1505

  iter  continuity  x-velocity  y-velocity  z-velocity      energy     time/iter
   496  3.6235e-03  4.7623e-03  3.8946e-03  3.3436e+01  3.5978e-03  0:00:26 1504
   497  3.6936e-03  4.7930e-03  3.8891e-03  3.3911e+01  3.6687e-03  0:00:21 1503
   498  3.7661e-03  4.8313e-03  3.8877e-03  3.4176e+01  3.7420e-03  0:00:17 1502
   499  3.8538e-03  4.8833e-03  3.8921e-03  3.4459e+01  3.8304e-03  0:00:13 1501
   500  3.9662e-03  4.9492e-03  3.9030e-03  3.4076e+01  3.9436e-03  0:00:11 1500
   501  4.0654e-03  5.0164e-03  3.9188e-03  3.3489e+01  4.0437e-03  0:00:09 1499
   502  4.1709e-03  5.0647e-03  3.9350e-03  3.3228e+01  4.1498e-03  0:00:07 1498
   503  4.2746e-03  5.1077e-03  3.9547e-03  3.2449e+01  4.2542e-03  0:00:05 1497
   504  4.3569e-03  5.1386e-03  3.9767e-03  3.1335e+01  4.3370e-03  0:00:04 1496
   505  4.4168e-03  5.1681e-03  4.0210e-03  3.0341e+01  4.3974e-03  0:05:02 1495
   506  4.4369e-03  5.1911e-03  4.0440e-03  2.9299e+01  4.4179e-03  0:04:02 1494

  iter  continuity  x-velocity  y-velocity  z-velocity      energy     time/iter
   507  4.4235e-03  5.2260e-03  4.0361e-03  2.8219e+01  4.4049e-03  0:03:13 1493
   508  4.3582e-03  5.2642e-03  4.0318e-03  2.7209e+01  4.3399e-03  0:02:35 1492
   509  4.2391e-03  5.2793e-03  4.0396e-03  2.6411e+01  4.2212e-03  0:02:04 1491
   510  4.0782e-03  5.2940e-03  4.0521e-03  2.5587e+01  4.0605e-03  0:01:39 1490
   511  3.8942e-03  5.3054e-03  4.0632e-03  2.5022e+01  3.8768e-03  0:01:19 1489
   512  3.7206e-03  5.3045e-03  4.0701e-03  2.4423e+01  3.7036e-03  0:01:03 1488
   513  3.5905e-03  5.3028e-03  4.0716e-03  2.4491e+01  3.5740e-03  0:00:50 1487
   514  3.5081e-03  5.3051e-03  4.0666e-03  2.4855e+01  3.4922e-03  0:00:40 1486
   515  3.4597e-03  5.3001e-03  4.0537e-03  2.5415e+01  3.4446e-03  0:00:32 1485
   516  3.4171e-03  5.2886e-03  4.0310e-03  2.5751e+01  3.4028e-03  0:00:26 1484
   517  3.4410e-03  5.2846e-03  4.0018e-03  2.6112e+01  3.4277e-03  0:00:21 1483

  iter  continuity  x-velocity  y-velocity  z-velocity      energy     time/iter
   518  3.4223e-03  5.2885e-03  3.9654e-03  2.6378e+01  3.4099e-03  0:00:16 1482
   519  3.2727e-03  5.2846e-03  3.9254e-03  2.6338e+01  3.2611e-03  0:00:13 1481
   520  3.0749e-03  5.2819e-03  3.8819e-03  2.6150e+01  3.0640e-03  0:00:11 1480
   521  2.9133e-03  5.2799e-03  3.8370e-03  2.5786e+01  2.9033e-03  0:00:08 1479
   522  2.7741e-03  5.2764e-03  3.7922e-03  2.5292e+01  2.7650e-03  0:00:07 1478
   523  2.6478e-03  5.2713e-03  3.7456e-03  2.4480e+01  2.6397e-03  0:00:05 1477
   524  2.5329e-03  5.2603e-03  3.6956e-03  2.3414e+01  2.5258e-03  0:00:04 1476
   525  2.3637e-03  5.2522e-03  3.6389e-03  2.2827e+01  2.3577e-03  0:04:58 1475
   526  2.1905e-03  5.2357e-03  3.5768e-03  2.2892e+01  2.1856e-03  0:03:59 1474
   527  2.1026e-03  5.2409e-03  3.5087e-03  2.3850e+01  2.0989e-03  0:03:11 1473
   528  2.1479e-03  5.2517e-03  3.4363e-03  2.5079e+01  2.1452e-03  0:02:32 1472

  iter  continuity  x-velocity  y-velocity  z-velocity      energy     time/iter
   529  2.3720e-03  5.2588e-03  3.3616e-03  2.6995e+01  2.3698e-03  0:02:02 1471
   530  2.6269e-03  5.2892e-03  3.2813e-03  2.9278e+01  2.6249e-03  0:01:37 1470
   531  2.7379e-03  5.3203e-03  3.1958e-03  3.1088e+01  2.7361e-03  0:01:18 1469
   532  2.8092e-03  5.3371e-03  3.1049e-03  3.3013e+01  2.8075e-03  0:01:02 1468
   533  2.7926e-03  5.3515e-03  3.0091e-03  3.4487e+01  2.7910e-03  0:00:50 1467
   534  2.7114e-03  5.3627e-03  2.9083e-03  3.4982e+01  2.7098e-03  0:00:40 1466
   535  2.6792e-03  5.3632e-03  2.8060e-03  3.5631e+01  2.6775e-03  0:00:32 1465
   536  2.6219e-03  5.3572e-03  2.7054e-03  3.5934e+01  2.6199e-03  0:00:25 1464
   537  2.5273e-03  5.3406e-03  2.6091e-03  3.6118e+01  2.5250e-03  0:00:20 1463
   538  2.4138e-03  5.3095e-03  2.5235e-03  3.5648e+01  2.4111e-03  0:00:16 1462
   539  2.3431e-03  5.2784e-03  2.4530e-03  3.5329e+01  2.3397e-03  0:00:13 1461

  iter  continuity  x-velocity  y-velocity  z-velocity      energy     time/iter
   540  2.3992e-03  5.2575e-03  2.3984e-03  3.6931e+01  2.3949e-03  0:00:10 1460
   541  2.5724e-03  5.2394e-03  2.3572e-03  3.9867e+01  2.5672e-03  0:00:08 1459
   542  2.7170e-03  5.2229e-03  2.3296e-03  4.3300e+01  2.7109e-03  0:00:07 1458
   543  2.7033e-03  5.2128e-03  2.3149e-03  4.6165e+01  2.6963e-03  0:00:05 1457
   544  2.6160e-03  5.1982e-03  2.3086e-03  4.8098e+01  2.6081e-03  0:00:04 1456
   545  2.4718e-03  5.1751e-03  2.3061e-03  4.9975e+01  2.4627e-03  0:00:03 1455
   546  2.3773e-03  5.1418e-03  2.3072e-03  5.2476e+01  2.3670e-03  0:04:54 1454
   547  2.3855e-03  5.1019e-03  2.3118e-03  5.5211e+01  2.3742e-03  0:03:55 1453
   548  2.4214e-03  5.0522e-03  2.3201e-03  5.6993e+01  2.4091e-03  0:03:08 1452
   549  2.4218e-03  4.9863e-03  2.3375e-03  5.7390e+01  2.4085e-03  0:02:30 1451
   550  2.3451e-03  4.9107e-03  2.3664e-03  5.5687e+01  2.3306e-03  0:02:00 1450

  iter  continuity  x-velocity  y-velocity  z-velocity      energy     time/iter
   551  2.1966e-03  4.8232e-03  2.4076e-03  5.4461e+01  2.1805e-03  0:01:36 1449
   552  2.1048e-03  4.7319e-03  2.4577e-03  5.4495e+01  2.0872e-03  0:01:17 1448
   553  2.0749e-03  4.6491e-03  2.5131e-03  5.4280e+01  2.0561e-03  0:01:01 1447
   554  2.0831e-03  4.5631e-03  2.5724e-03  5.3961e+01  2.0636e-03  0:00:49 1446
   555  2.1097e-03  4.4840e-03  2.6341e-03  5.3653e+01  2.0897e-03  0:00:39 1445
   556  2.1253e-03  4.4089e-03  2.6964e-03  5.2248e+01  2.1049e-03  0:00:31 1444
   557  2.0513e-03  4.3421e-03  2.7574e-03  5.0810e+01  2.0296e-03  0:00:25 1443
   558  2.0147e-03  4.2835e-03  2.8168e-03  5.1164e+01  1.9922e-03  0:00:20 1442
   559  2.0623e-03  4.2402e-03  2.8741e-03  5.3440e+01  2.0397e-03  0:00:16 1441
   560  2.1576e-03  4.2106e-03  2.9272e-03  5.6362e+01  2.1355e-03  0:00:13 1440
   561  2.2753e-03  4.1845e-03  2.9761e-03  5.8924e+01  2.2539e-03  0:00:10 1439

  iter  continuity  x-velocity  y-velocity  z-velocity      energy     time/iter
   562  2.3160e-03  4.1621e-03  3.0207e-03  5.9750e+01  2.2946e-03  0:00:08 1438
   563  2.3096e-03  4.1508e-03  3.0619e-03  6.2252e+01  2.2879e-03  0:00:07 1437
   564  2.3625e-03  4.1433e-03  3.0997e-03  6.5213e+01  2.3409e-03  0:00:05 1436
   565  2.5933e-03  4.1330e-03  3.1345e-03  6.7063e+01  2.5731e-03  0:00:04 1435
   566  2.7951e-03  4.1279e-03  3.1640e-03  6.8325e+01  2.7758e-03  0:04:50 1434
   567  3.0399e-03  4.1319e-03  3.1889e-03  6.9913e+01  3.0216e-03  0:03:52 1433
   568  3.2354e-03  4.1271e-03  3.2107e-03  7.0543e+01  3.2179e-03  0:03:05 1432
   569  3.2592e-03  4.1228e-03  3.2290e-03  7.4028e+01  3.2417e-03  0:02:28 1431
   570  3.0959e-03  4.1249e-03  3.2467e-03  8.0265e+01  3.0777e-03  0:01:59 1430
   571  3.1489e-03  4.1390e-03  3.2624e-03  8.9044e+01  3.1309e-03  0:01:35 1429
   572  3.3812e-03  4.1607e-03  3.2762e-03  9.6599e+01  3.3642e-03  0:01:16 1428

  iter  continuity  x-velocity  y-velocity  z-velocity      energy     time/iter
   573  3.5587e-03  4.2004e-03  3.2874e-03  9.9941e+01  3.5424e-03  0:01:01 1427
   574  3.6597e-03  4.2416e-03  3.2973e-03  1.0099e+02  3.6439e-03  0:00:48 1426
   575  3.6637e-03  4.2751e-03  3.3048e-03  1.0028e+02  3.6481e-03  0:00:39 1425
   576  3.5673e-03  4.3013e-03  3.3115e-03  1.0624e+02  3.5517e-03  0:00:31 1424
   577  3.5022e-03  4.3314e-03  3.3156e-03  1.1070e+02  3.4864e-03  0:00:25 1423
   578  3.6257e-03  4.3575e-03  3.3162e-03  1.1806e+02  3.6105e-03  0:00:20 1422
   579  3.8898e-03  4.3825e-03  3.3115e-03  1.2180e+02  3.8755e-03  0:00:16 1421
   580  4.0903e-03  4.4029e-03  3.3066e-03  1.2321e+02  4.0767e-03  0:00:13 1420
   581  4.1940e-03  4.4107e-03  3.3014e-03  1.2784e+02  4.1808e-03  0:00:10 1419
   582  4.2488e-03  4.4149e-03  3.2971e-03  1.3473e+02  4.2360e-03  0:00:08 1418
   583  4.2550e-03  4.4394e-03  3.2993e-03  1.4306e+02  4.2425e-03  0:00:06 1417

  iter  continuity  x-velocity  y-velocity  z-velocity      energy     time/iter
   584  4.3196e-03  4.4806e-03  3.3075e-03  1.5532e+02  4.3076e-03  0:00:05 1416
   585  4.5188e-03  4.5634e-03  3.3166e-03  1.6448e+02  4.5075e-03  0:00:04 1415
   586  4.7836e-03  4.6599e-03  3.3260e-03  1.7293e+02  4.7730e-03  0:00:03 1414
   587  4.8976e-03  4.7428e-03  3.3303e-03  1.7833e+02  4.8876e-03  0:04:45 1413
   588  4.8308e-03  4.8154e-03  3.3323e-03  1.8127e+02  4.8211e-03  0:03:48 1412
   589  4.6371e-03  4.8674e-03  3.3323e-03  1.8677e+02  4.6276e-03  0:03:02 1411
   590  4.4648e-03  4.9084e-03  3.3258e-03  2.0377e+02  4.4557e-03  0:02:26 1410
   591  4.4409e-03  4.9494e-03  3.3098e-03  2.1752e+02  4.4320e-03  0:01:57 1409
   592  4.7281e-03  4.9998e-03  3.2883e-03  2.2642e+02  4.7198e-03  0:01:33 1408
   593  5.2939e-03  5.0751e-03  3.2549e-03  2.2916e+02  5.2859e-03  0:01:14 1407
   594  5.6448e-03  5.1334e-03  3.2192e-03  2.2572e+02  5.6370e-03  0:01:00 1406

  iter  continuity  x-velocity  y-velocity  z-velocity      energy     time/iter
   595  5.7277e-03  5.1593e-03  3.1864e-03  2.2538e+02  5.7201e-03  0:00:48 1405
   596  5.7733e-03  5.1594e-03  3.1440e-03  2.3152e+02  5.7660e-03  0:00:38 1404
   597  5.5937e-03  5.1500e-03  3.0936e-03  2.4367e+02  5.5866e-03  0:00:30 1403
   598  5.2875e-03  5.1166e-03  3.0461e-03  2.5627e+02  5.2806e-03  0:00:24 1402
   599  5.2040e-03  5.0801e-03  2.9911e-03  2.7479e+02  5.1974e-03  0:00:19 1401
   600  5.2735e-03  5.0925e-03  2.9328e-03  2.8546e+02  5.2671e-03  0:00:16 1400
   601  5.3612e-03  5.1179e-03  2.8793e-03  2.9085e+02  5.3548e-03  0:00:12 1399
   602  5.4465e-03  5.1361e-03  2.8244e-03  2.9012e+02  5.4403e-03  0:00:10 1398
   603  5.3392e-03  5.1468e-03  2.7729e-03  2.8329e+02  5.3331e-03  0:00:08 1397
   604  5.0235e-03  5.1414e-03  2.7230e-03  2.7968e+02  5.0175e-03  0:00:06 1396
   605  4.6879e-03  5.1254e-03  2.6598e-03  2.8889e+02  4.6821e-03  0:00:05 1395

  iter  continuity  x-velocity  y-velocity  z-velocity      energy     time/iter
   606  4.6773e-03  5.1144e-03  2.5814e-03  3.0200e+02  4.6717e-03  0:00:04 1394
   607  5.0472e-03  5.0973e-03  2.4987e-03  3.1143e+02  5.0416e-03  0:00:03 1393
   608  5.6102e-03  5.1018e-03  2.4181e-03  3.1122e+02  5.6045e-03  0:00:03 1392
   609  5.8933e-03  5.1075e-03  2.3564e-03  3.0412e+02  5.8874e-03  0:00:02 1391
   610  5.9404e-03  5.0552e-03  2.3099e-03  2.9601e+02  5.9345e-03  0:04:40 1390
   611  5.8962e-03  4.9953e-03  2.2616e-03  2.9238e+02  5.8902e-03  0:03:44 1389
   612  5.6347e-03  4.9480e-03  2.2163e-03  2.9312e+02  5.6288e-03  0:02:59 1388
   613  5.3863e-03  4.8785e-03  2.1739e-03  2.9825e+02  5.3805e-03  0:02:23 1387
   614  5.3825e-03  4.8132e-03  2.1156e-03  3.1340e+02  5.3768e-03  0:01:54 1386
   615  5.3341e-03  4.7910e-03  2.0604e-03  3.2435e+02  5.3285e-03  0:01:31 1385
   616  5.3615e-03  4.7888e-03  2.0086e-03  3.3108e+02  5.3560e-03  0:01:13 1384

  iter  continuity  x-velocity  y-velocity  z-velocity      energy     time/iter
   617  5.3855e-03  4.7740e-03  1.9541e-03  3.2832e+02  5.3800e-03  0:00:58 1383
   618  5.1056e-03  4.7535e-03  1.9116e-03  3.1503e+02  5.1002e-03  0:00:47 1382
   619  4.6518e-03  4.7057e-03  1.8734e-03  3.0900e+02  4.6465e-03  0:00:37 1381
   620  4.3071e-03  4.6311e-03  1.8271e-03  3.1196e+02  4.3018e-03  0:00:30 1380
   621  4.3830e-03  4.5679e-03  1.7669e-03  3.1728e+02  4.3778e-03  0:00:24 1379
   622  4.7966e-03  4.4895e-03  1.7213e-03  3.2126e+02  4.7914e-03  0:00:19 1378
   623  5.1488e-03  4.4204e-03  1.7120e-03  3.1226e+02  5.1435e-03  0:00:15 1377
   624  5.2503e-03  4.3982e-03  1.7336e-03  2.9623e+02  5.2449e-03  0:00:12 1376
   625  5.2517e-03  4.3430e-03  1.7724e-03  2.8433e+02  5.2463e-03  0:00:10 1375
   626  5.0239e-03  4.3193e-03  1.8100e-03  2.7274e+02  5.0185e-03  0:00:08 1374
   627  4.7143e-03  4.3165e-03  1.8317e-03  2.7068e+02  4.7090e-03  0:00:06 1373

  iter  continuity  x-velocity  y-velocity  z-velocity      energy     time/iter
   628  4.5035e-03  4.2953e-03  1.8198e-03  2.7411e+02  4.4983e-03  0:00:05 1372
   629  4.3155e-03  4.2552e-03  1.7933e-03  2.7974e+02  4.3104e-03  0:00:04 1371
   630  4.2607e-03  4.2154e-03  1.7549e-03  2.8611e+02  4.2559e-03  0:00:03 1370
   631  4.2640e-03  4.1645e-03  1.7062e-03  2.8362e+02  4.2593e-03  0:00:03 1369
   632  4.0228e-03  4.1179e-03  1.6677e-03  2.7707e+02  4.0182e-03  0:00:02 1368
   633  3.6484e-03  4.0633e-03  1.6395e-03  2.7374e+02  3.6439e-03  0:04:35 1367
   634  3.4470e-03  3.9921e-03  1.6176e-03  2.7594e+02  3.4426e-03  0:03:40 1366
   635  3.5230e-03  3.9435e-03  1.5963e-03  2.8172e+02  3.5188e-03  0:02:56 1365
   636  3.7386e-03  3.8943e-03  1.5880e-03  2.8210e+02  3.7346e-03  0:02:21 1364
   637  3.8928e-03  3.8428e-03  1.6108e-03  2.7510e+02  3.8889e-03  0:01:52 1363
   638  3.9549e-03  3.8320e-03  1.6476e-03  2.6313e+02  3.9511e-03  0:01:30 1362

  iter  continuity  x-velocity  y-velocity  z-velocity      energy     time/iter
   639  3.8792e-03  3.8333e-03  1.6906e-03  2.5302e+02  3.8755e-03  0:01:12 1361
   640  3.6944e-03  3.8521e-03  1.7350e-03  2.4519e+02  3.6909e-03  0:00:57 1360
   641  3.5830e-03  3.8963e-03  1.7665e-03  2.4756e+02  3.5797e-03  0:00:46 1359
   642  3.5348e-03  3.9509e-03  1.7752e-03  2.4859e+02  3.5318e-03  0:00:37 1358
   643  3.5550e-03  4.0023e-03  1.7618e-03  2.5090e+02  3.5522e-03  0:00:29 1357
   644  3.5025e-03  4.0236e-03  1.7336e-03  2.4640e+02  3.4999e-03  0:00:23 1356
   645  3.2630e-03  4.0466e-03  1.7033e-03  2.3692e+02  3.2607e-03  0:00:19 1355
   646  2.9396e-03  4.0660e-03  1.6684e-03  2.2971e+02  2.9376e-03  0:00:15 1354
   647  2.7129e-03  4.0793e-03  1.6301e-03  2.2942e+02  2.7111e-03  0:00:12 1353
   648  2.7048e-03  4.0762e-03  1.5922e-03  2.3590e+02  2.7030e-03  0:00:10 1352
   649  2.9093e-03  4.0671e-03  1.5645e-03  2.4410e+02  2.9074e-03  0:00:08 1351

  iter  continuity  x-velocity  y-velocity  z-velocity      energy     time/iter
   650  3.2378e-03  4.0764e-03  1.5528e-03  2.4781e+02  3.2357e-03  0:00:06 1350
   651  3.4552e-03  4.0665e-03  1.5556e-03  2.4654e+02  3.4529e-03  0:00:05 1349
   652  3.4786e-03  4.0565e-03  1.5702e-03  2.4414e+02  3.4762e-03  0:00:04 1348
   653  3.3486e-03  4.0628e-03  1.5845e-03  2.4210e+02  3.3462e-03  0:00:03 1347
   654  3.1710e-03  4.0760e-03  1.5917e-03  2.4400e+02  3.1685e-03  0:00:02 1346
   655  2.9822e-03  4.1040e-03  1.5945e-03  2.4732e+02  2.9796e-03  0:00:02 1345
   656  2.9358e-03  4.1423e-03  1.5904e-03  2.5175e+02  2.9331e-03  0:04:30 1344
   657  2.9443e-03  4.1833e-03  1.5763e-03  2.5377e+02  2.9414e-03  0:03:36 1343
   658  2.8773e-03  4.2221e-03  1.5615e-03  2.5452e+02  2.8742e-03  0:02:53 1342
   659  2.7437e-03  4.2544e-03  1.5415e-03  2.5530e+02  2.7404e-03  0:02:18 1341
   660  2.5965e-03  4.2717e-03  1.5101e-03  2.6035e+02  2.5929e-03  0:01:50 1340

  iter  continuity  x-velocity  y-velocity  z-velocity      energy     time/iter
   661  2.5176e-03  4.2749e-03  1.4665e-03  2.6726e+02  2.5135e-03  0:01:28 1339
   662  2.6465e-03  4.2570e-03  1.4233e-03  2.6773e+02  2.6420e-03  0:01:11 1338
   663  2.8671e-03  4.2015e-03  1.3941e-03  2.6245e+02  2.8623e-03  0:00:56 1337
   664  3.0377e-03  4.1334e-03  1.3830e-03  2.4846e+02  3.0325e-03  0:00:45 1336
   665  3.0747e-03  4.0660e-03  1.3930e-03  2.3080e+02  3.0691e-03  0:00:36 1335
   666  3.0707e-03  3.9993e-03  1.4184e-03  2.1471e+02  3.0647e-03  0:00:29 1334
   667  2.9455e-03  3.9458e-03  1.4573e-03  1.9945e+02  2.9389e-03  0:00:23 1333
   668  2.8171e-03  3.9160e-03  1.5048e-03  1.9306e+02  2.8100e-03  0:00:18 1332
   669  2.7111e-03  3.9008e-03  1.5594e-03  1.9387e+02  2.7036e-03  0:00:15 1331
   670  2.6217e-03  3.8990e-03  1.6305e-03  1.9736e+02  2.6136e-03  0:00:12 1330
   671  2.5076e-03  3.9081e-03  1.7007e-03  2.0179e+02  2.4988e-03  0:00:09 1329

  iter  continuity  x-velocity  y-velocity  z-velocity      energy     time/iter
   672  2.4433e-03  3.9211e-03  1.7432e-03  2.1134e+02  2.4340e-03  0:00:08 1328
   673  2.4629e-03  3.9309e-03  1.7838e-03  2.2506e+02  2.4532e-03  0:00:06 1327
   674  2.6013e-03  3.9353e-03  1.8376e-03  2.4055e+02  2.5916e-03  0:00:05 1326
   675  2.9443e-03  3.9354e-03  1.8826e-03  2.5191e+02  2.9352e-03  0:00:04 1325
   676  3.2797e-03  3.9306e-03  1.9115e-03  2.5361e+02  3.2710e-03  0:00:03 1324
   677  3.4554e-03  3.9123e-03  1.9451e-03  2.5326e+02  3.4468e-03  0:00:02 1323
   678  3.4676e-03  3.8823e-03  1.9952e-03  2.5009e+02  3.4588e-03  0:00:02 1322
   679  3.4077e-03  3.8485e-03  2.0633e-03  2.4506e+02  3.3988e-03  0:04:26 1321
   680  3.2093e-03  3.8152e-03  2.0889e-03  2.4395e+02  3.1999e-03  0:03:32 1320
   681  3.0045e-03  3.8007e-03  2.1246e-03  2.4500e+02  2.9945e-03  0:02:50 1319
   682  2.8459e-03  3.8050e-03  2.1597e-03  2.4701e+02  2.8354e-03  0:02:16 1318

  iter  continuity  x-velocity  y-velocity  z-velocity      energy     time/iter
   683  2.8446e-03  3.8296e-03  2.1962e-03  2.4507e+02  2.8340e-03  0:01:49 1317
   684  2.8482e-03  3.8684e-03  2.2344e-03  2.3833e+02  2.8375e-03  0:01:27 1316
   685  2.7883e-03  3.9115e-03  2.2749e-03  2.2922e+02  2.7774e-03  0:01:09 1315
   686  2.7491e-03  3.9536e-03  2.3107e-03  2.2551e+02  2.7381e-03  0:00:55 1314
   687  2.8014e-03  3.9861e-03  2.3327e-03  2.3065e+02  2.7906e-03  0:00:44 1313
   688  2.9136e-03  4.0039e-03  2.3339e-03  2.3841e+02  2.9032e-03  0:00:35 1312
   689  3.0680e-03  4.0208e-03  2.3265e-03  2.4541e+02  3.0579e-03  0:00:28 1311
   690  3.2572e-03  4.0331e-03  2.3134e-03  2.5149e+02  3.2475e-03  0:00:23 1310
   691  3.3579e-03  4.0327e-03  2.3157e-03  2.5693e+02  3.3484e-03  0:00:18 1309
   692  3.3364e-03  4.0114e-03  2.3116e-03  2.5733e+02  3.3267e-03  0:00:14 1308
   693  3.1981e-03  3.9833e-03  2.3160e-03  2.5386e+02  3.1881e-03  0:00:12 1307

  iter  continuity  x-velocity  y-velocity  z-velocity      energy     time/iter
   694  3.0439e-03  3.9764e-03  2.3091e-03  2.5255e+02  3.0335e-03  0:00:09 1306
   695  2.9291e-03  3.9823e-03  2.3162e-03  2.5835e+02  2.9183e-03  0:00:07 1305
   696  2.9367e-03  4.0042e-03  2.3131e-03  2.6811e+02  2.9259e-03  0:00:06 1304
   697  3.0040e-03  4.0399e-03  2.3136e-03  2.7525e+02  2.9932e-03  0:04:25 1303
   698  2.9905e-03  4.0909e-03  2.3295e-03  2.7816e+02  2.9797e-03  0:03:32 1302
   699  2.9142e-03  4.1399e-03  2.3440e-03  2.7508e+02  2.9031e-03  0:02:50 1301
   700  2.8429e-03  4.1808e-03  2.3441e-03  2.7295e+02  2.8315e-03  0:02:16 1300
   701  2.8120e-03  4.2081e-03  2.3457e-03  2.7680e+02  2.8005e-03  0:01:48 1299
   702  2.8680e-03  4.2129e-03  2.3276e-03  2.8284e+02  2.8565e-03  0:01:27 1298
   703  3.0204e-03  4.2020e-03  2.2993e-03  2.9151e+02  3.0093e-03  0:01:09 1297
   704  3.2007e-03  4.1718e-03  2.2549e-03  2.9876e+02  3.1899e-03  0:00:55 1296

  iter  continuity  x-velocity  y-velocity  z-velocity      energy     time/iter
   705  3.3013e-03  4.1358e-03  2.2207e-03  2.9671e+02  3.2906e-03  0:00:44 1295
   706  3.2711e-03  4.0911e-03  2.2111e-03  2.8653e+02  3.2601e-03  0:00:35 1294
   707  3.1670e-03  4.0428e-03  2.2025e-03  2.7237e+02  3.1556e-03  0:00:28 1293
   708  3.0981e-03  4.0130e-03  2.1840e-03  2.6338e+02  3.0863e-03  0:00:23 1292
   709  3.0535e-03  4.0013e-03  2.1894e-03  2.6440e+02  3.0414e-03  0:00:18 1291
   710  3.1081e-03  4.0039e-03  2.1943e-03  2.7872e+02  3.0959e-03  0:00:14 1290
   711  3.1491e-03  4.0165e-03  2.2080e-03  2.9359e+02  3.1369e-03  0:00:12 1289
   712  3.1170e-03  4.0520e-03  2.2457e-03  3.0289e+02  3.1045e-03  0:00:09 1288
   713  2.9624e-03  4.0849e-03  2.2834e-03  3.0138e+02  2.9492e-03  0:00:07 1287
   714  2.8224e-03  4.1230e-03  2.3158e-03  2.9815e+02  2.8085e-03  0:00:06 1286
   715  2.7449e-03  4.1437e-03  2.3453e-03  2.9967e+02  2.7306e-03  0:00:05 1285

  iter  continuity  x-velocity  y-velocity  z-velocity      energy     time/iter
   716  2.8286e-03  4.1520e-03  2.3756e-03  3.0718e+02  2.8145e-03  0:00:04 1284
   717  3.0632e-03  4.1459e-03  2.3719e-03  3.1559e+02  3.0499e-03  0:00:03 1283
   718  3.3203e-03  4.1391e-03  2.3690e-03  3.2293e+02  3.3076e-03  0:00:02 1282
   719  3.4543e-03  4.1199e-03  2.3795e-03  3.2310e+02  3.4419e-03  0:04:18 1281
   720  3.4660e-03  4.0914e-03  2.4086e-03  3.1569e+02  3.4535e-03  0:03:26 1280
   721  3.3451e-03  4.0640e-03  2.4398e-03  3.0308e+02  3.3320e-03  0:02:45 1279
   722  3.1742e-03  4.0348e-03  2.4556e-03  2.9129e+02  3.1605e-03  0:02:12 1278
   723  3.0361e-03  4.0257e-03  2.4828e-03  2.8767e+02  3.0217e-03  0:01:45 1277
   724  3.0385e-03  4.0181e-03  2.5081e-03  2.9175e+02  3.0241e-03  0:01:24 1276
   725  3.0770e-03  4.0171e-03  2.5271e-03  2.9885e+02  3.0626e-03  0:01:07 1275
   726  3.0993e-03  4.0277e-03  2.5596e-03  3.0172e+02  3.0850e-03  0:00:54 1274

  iter  continuity  x-velocity  y-velocity  z-velocity      energy     time/iter
   727  3.0048e-03  4.0518e-03  2.6102e-03  2.9778e+02  2.9901e-03  0:00:43 1273
   728  2.8960e-03  4.0748e-03  2.6429e-03  2.8962e+02  2.8809e-03  0:00:34 1272
   729  2.7889e-03  4.0988e-03  2.6647e-03  2.8015e+02  2.7733e-03  0:00:27 1271
   730  2.7463e-03  4.1227e-03  2.6846e-03  2.7593e+02  2.7307e-03  0:00:22 1270
   731  2.8513e-03  4.1292e-03  2.6975e-03  2.7844e+02  2.8362e-03  0:00:18 1269
   732  3.0350e-03  4.1200e-03  2.7070e-03  2.7822e+02  3.0207e-03  0:00:14 1268
   733  3.1658e-03  4.1047e-03  2.7115e-03  2.7715e+02  3.1520e-03  0:00:11 1267
   734  3.2208e-03  4.0939e-03  2.7265e-03  2.7030e+02  3.2072e-03  0:00:09 1266
   735  3.1684e-03  4.0760e-03  2.7470e-03  2.5605e+02  3.1546e-03  0:00:07 1265
   736  3.0454e-03  4.0663e-03  2.7670e-03  2.4258e+02  3.0312e-03  0:00:06 1264
   737  2.9015e-03  4.0778e-03  2.7782e-03  2.3752e+02  2.8868e-03  0:00:05 1263

  iter  continuity  x-velocity  y-velocity  z-velocity      energy     time/iter
   738  2.8091e-03  4.0866e-03  2.7903e-03  2.4521e+02  2.7941e-03  0:00:04 1262
   739  2.8058e-03  4.0956e-03  2.7907e-03  2.5697e+02  2.7907e-03  0:00:03 1261
   740  2.8157e-03  4.1067e-03  2.7915e-03  2.6645e+02  2.8007e-03  0:04:14 1260
   741  2.7803e-03  4.1295e-03  2.8046e-03  2.6846e+02  2.7652e-03  0:03:23 1259
   742  2.7112e-03  4.1675e-03  2.8269e-03  2.6476e+02  2.6958e-03  0:02:43 1258
   743  2.6051e-03  4.1963e-03  2.8064e-03  2.5920e+02  2.5892e-03  0:02:10 1257
   744  2.5533e-03  4.2273e-03  2.7962e-03  2.5683e+02  2.5372e-03  0:01:44 1256
   745  2.6878e-03  4.2473e-03  2.7837e-03  2.5910e+02  2.6724e-03  0:01:23 1255
   746  2.9668e-03  4.2586e-03  2.7728e-03  2.6264e+02  2.9526e-03  0:01:06 1254
   747  3.2380e-03  4.2525e-03  2.7647e-03  2.6360e+02  3.2247e-03  0:00:53 1253
   748  3.4231e-03  4.2470e-03  2.7659e-03  2.6233e+02  3.4103e-03  0:00:42 1252

  iter  continuity  x-velocity  y-velocity  z-velocity      energy     time/iter
   749  3.4967e-03  4.2303e-03  2.7795e-03  2.5314e+02  3.4839e-03  0:00:34 1251
   750  3.3902e-03  4.2140e-03  2.7874e-03  2.4057e+02  3.3771e-03  0:00:27 1250
   751  3.1673e-03  4.2203e-03  2.8060e-03  2.2960e+02  3.1533e-03  0:00:22 1249
   752  2.9183e-03  4.2163e-03  2.8053e-03  2.2749e+02  2.9033e-03  0:00:17 1248
   753  2.7601e-03  4.2204e-03  2.7870e-03  2.3271e+02  2.7443e-03  0:00:14 1247
   754  2.7087e-03  4.2208e-03  2.7739e-03  2.4048e+02  2.6925e-03  0:00:11 1246
   755  2.6681e-03  4.2198e-03  2.7732e-03  2.4381e+02  2.6516e-03  0:00:09 1245
   756  2.6448e-03  4.2369e-03  2.7770e-03  2.4092e+02  2.6280e-03  0:00:07 1244
   757  2.6193e-03  4.2751e-03  2.7893e-03  2.3597e+02  2.6024e-03  0:00:06 1243
   758  2.5641e-03  4.3062e-03  2.7968e-03  2.3387e+02  2.5467e-03  0:00:05 1242
   759  2.6571e-03  4.3207e-03  2.7553e-03  2.4065e+02  2.6401e-03  0:00:04 1241

  iter  continuity  x-velocity  y-velocity  z-velocity      energy     time/iter
   760  2.8696e-03  4.3221e-03  2.7419e-03  2.5173e+02  2.8535e-03  0:00:03 1240
   761  3.1008e-03  4.2936e-03  2.7334e-03  2.6437e+02  3.0855e-03  0:00:02 1239
   762  3.2764e-03  4.2619e-03  2.7100e-03  2.6977e+02  3.2616e-03  0:00:02 1238
   763  3.3842e-03  4.2322e-03  2.7011e-03  2.6840e+02  3.3696e-03  0:04:09 1237
   764  3.3986e-03  4.2086e-03  2.7159e-03  2.5750e+02  3.3839e-03  0:03:19 1236
   765  3.2752e-03  4.1804e-03  2.7444e-03  2.4028e+02  3.2599e-03  0:02:39 1235
   766  3.0458e-03  4.1771e-03  2.7661e-03  2.2478e+02  3.0294e-03  0:02:07 1234
   767  2.8606e-03  4.1795e-03  2.7965e-03  2.1810e+02  2.8432e-03  0:01:42 1233
   768  2.7374e-03  4.1624e-03  2.8030e-03  2.1825e+02  2.7192e-03  0:01:21 1232
   769  2.6599e-03  4.1382e-03  2.8056e-03  2.1861e+02  2.6411e-03  0:01:05 1231
   770  2.5285e-03  4.1104e-03  2.8116e-03  2.1528e+02  2.5088e-03  0:00:52 1230

  iter  continuity  x-velocity  y-velocity  z-velocity      energy     time/iter
   771  2.3750e-03  4.0802e-03  2.8205e-03  2.0674e+02  2.3540e-03  0:00:41 1229
   772  2.2303e-03  4.0545e-03  2.8309e-03  1.9686e+02  2.2081e-03  0:00:33 1228
   773  2.1187e-03  4.0536e-03  2.8423e-03  1.8997e+02  2.0954e-03  0:00:27 1227
   774  2.0852e-03  4.0695e-03  2.8558e-03  1.8799e+02  2.0616e-03  0:00:21 1226
   775  2.1983e-03  4.0755e-03  2.8586e-03  1.9406e+02  2.1757e-03  0:00:17 1225
   776  2.4149e-03  4.0777e-03  2.8619e-03  2.0655e+02  2.3941e-03  0:00:14 1224
   777  2.6236e-03  4.0732e-03  2.8729e-03  2.1814e+02  2.6042e-03  0:00:11 1223
   778  2.7576e-03  4.0688e-03  2.8910e-03  2.2575e+02  2.7390e-03  0:00:09 1222
   779  2.8378e-03  4.0621e-03  2.9169e-03  2.2915e+02  2.8195e-03  0:00:07 1221
   780  2.7900e-03  4.0535e-03  2.9549e-03  2.3183e+02  2.7715e-03  0:00:06 1220
   781  2.6694e-03  4.0441e-03  2.9888e-03  2.3179e+02  2.6501e-03  0:00:04 1219

  iter  continuity  x-velocity  y-velocity  z-velocity      energy     time/iter
   782  2.5116e-03  4.0353e-03  3.0090e-03  2.2883e+02  2.4914e-03  0:00:04 1218
   783  2.3904e-03  4.0292e-03  3.0275e-03  2.2513e+02  2.3694e-03  0:00:03 1217
   784  2.3241e-03  4.0214e-03  3.0424e-03  2.2386e+02  2.3027e-03  0:00:02 1216
   785  2.2806e-03  4.0116e-03  3.0535e-03  2.2272e+02  2.2589e-03  0:00:02 1215
   786  2.2151e-03  4.0043e-03  3.0632e-03  2.1800e+02  2.1930e-03  0:04:04 1214
   787  2.1336e-03  4.0053e-03  3.0731e-03  2.1076e+02  2.1109e-03  0:03:15 1213
   788  2.0333e-03  4.0150e-03  3.0803e-03  2.0254e+02  2.0097e-03  0:02:36 1212
   789  1.9174e-03  4.0234e-03  3.0801e-03  1.9395e+02  1.8927e-03  0:02:05 1211
   790  1.8369e-03  4.0280e-03  3.0732e-03  1.8542e+02  1.8113e-03  0:01:40 1210
   791  1.8057e-03  4.0235e-03  3.0600e-03  1.7750e+02  1.7800e-03  0:01:20 1209
   792  1.8344e-03  4.0041e-03  3.0417e-03  1.7042e+02  1.8091e-03  0:01:04 1208

  iter  continuity  x-velocity  y-velocity  z-velocity      energy     time/iter
   793  1.9064e-03  3.9710e-03  3.0227e-03  1.6475e+02  1.8820e-03  0:00:51 1207
   794  1.9913e-03  3.9362e-03  3.0071e-03  1.5845e+02  1.9680e-03  0:00:41 1206
   795  2.0614e-03  3.9107e-03  2.9965e-03  1.5296e+02  2.0387e-03  0:00:33 1205
   796  2.0938e-03  3.8915e-03  2.9870e-03  1.4891e+02  2.0714e-03  0:00:26 1204
   797  2.0711e-03  3.8744e-03  2.9773e-03  1.4701e+02  2.0485e-03  0:00:21 1203
   798  2.0146e-03  3.8613e-03  2.9686e-03  1.4727e+02  1.9915e-03  0:00:17 1202
   799  1.9528e-03  3.8493e-03  2.9613e-03  1.4811e+02  1.9291e-03  0:00:13 1201
   800  1.8912e-03  3.8336e-03  2.9535e-03  1.4830e+02  1.8669e-03  0:00:11 1200
   801  1.8337e-03  3.8120e-03  2.9448e-03  1.4806e+02  1.8088e-03  0:00:08 1199
   802  1.7809e-03  3.7883e-03  2.9341e-03  1.4834e+02  1.7555e-03  0:00:07 1198
   803  1.7322e-03  3.7656e-03  2.9211e-03  1.4937e+02  1.7062e-03  0:00:05 1197

  iter  continuity  x-velocity  y-velocity  z-velocity      energy     time/iter
   804  1.6942e-03  3.7450e-03  2.9052e-03  1.5163e+02  1.6677e-03  0:00:04 1196
   805  1.6563e-03  3.7268e-03  2.8863e-03  1.5445e+02  1.6293e-03  0:00:03 1195
   806  1.6352e-03  3.7109e-03  2.8667e-03  1.5674e+02  1.6080e-03  0:00:03 1194
   807  1.6196e-03  3.6965e-03  2.8469e-03  1.5691e+02  1.5922e-03  0:00:02 1193
   808  1.6099e-03  3.6824e-03  2.8277e-03  1.5642e+02  1.5824e-03  0:00:02 1192
   809  1.6096e-03  3.6672e-03  2.8098e-03  1.5511e+02  1.5821e-03  0:04:00 1191
[...]
  1791  1.5016e-04  7.2872e-04  5.2199e-04  9.2761e-02  1.4294e-04  0:00:01  209
  1792  1.4930e-04  7.3089e-04  5.2011e-04  9.1030e-02  1.4218e-04  0:00:01  208
  1793  1.4834e-04  7.3311e-04  5.1802e-04  8.9406e-02  1.4132e-04  0:00:42  207

  iter  continuity  x-velocity  y-velocity  z-velocity      energy     time/iter
  1794  1.4730e-04  7.3517e-04  5.1579e-04  8.7990e-02  1.4037e-04  0:00:33  206
  1795  1.4616e-04  7.3710e-04  5.1340e-04  8.7172e-02  1.3934e-04  0:00:27  205
  1796  1.4494e-04  7.3894e-04  5.1082e-04  8.6665e-02  1.3822e-04  0:00:21  204
  1797  1.4363e-04  7.4068e-04  5.0806e-04  8.6186e-02  1.3703e-04  0:00:17  203
  1798  1.4224e-04  7.4234e-04  5.0511e-04  8.5979e-02  1.3575e-04  0:00:13  202
  1799  1.4070e-04  7.4393e-04  5.0197e-04  8.5851e-02  1.3432e-04  0:00:11  201
  1800  1.3881e-04  7.4544e-04  4.9865e-04  8.5966e-02  1.3253e-04  0:00:09  200
  1801  1.3697e-04  7.4679e-04  4.9514e-04  8.6725e-02  1.3080e-04  0:00:07  199
  1802  1.3522e-04  7.4805e-04  4.9144e-04  8.7623e-02  1.2918e-04  0:00:05  198
  1803  1.3348e-04  7.4922e-04  4.8755e-04  8.8676e-02  1.2757e-04  0:00:04  197
  1804  1.3171e-04  7.5028e-04  4.8346e-04  8.9393e-02  1.2594e-04  0:00:03  196

  iter  continuity  x-velocity  y-velocity  z-velocity      energy     time/iter
  1805  1.2993e-04  7.5121e-04  4.7917e-04  8.9647e-02  1.2430e-04  0:00:03  195
  1806  1.2813e-04  7.5208e-04  4.7468e-04  8.8869e-02  1.2265e-04  0:00:02  194
  1807  1.2625e-04  7.5286e-04  4.6997e-04  8.7609e-02  1.2093e-04  0:00:02  193
  1808  1.2428e-04  7.5353e-04  4.6505e-04  8.7120e-02  1.1911e-04  0:00:01  192
  1809  1.2223e-04  7.5408e-04  4.5991e-04  8.5594e-02  1.1721e-04  0:00:01  191
  1810  1.2012e-04  7.5452e-04  4.5455e-04  8.2657e-02  1.1526e-04  0:00:01  190
  1811  1.1799e-04  7.5486e-04  4.4896e-04  7.9242e-02  1.1330e-04  0:00:01  189
  1812  1.1588e-04  7.5508e-04  4.4314e-04  9.4463e-02  1.1135e-04  0:00:38  188
  1813  1.1379e-04  7.5520e-04  4.3711e-04  1.0425e-01  1.0944e-04  0:00:30  187
  1814  1.1175e-04  7.5516e-04  4.3085e-04  1.0387e-01  1.0758e-04  0:00:24  186
  1815  1.0980e-04  7.5500e-04  4.2435e-04  1.0200e-01  1.0582e-04  0:00:19  185

  iter  continuity  x-velocity  y-velocity  z-velocity      energy     time/iter
  1816  1.0796e-04  7.5472e-04  4.1762e-04  1.0147e-01  1.0416e-04  0:00:15  184
  1817  1.0621e-04  7.5433e-04  4.1066e-04  1.0427e-01  1.0261e-04  0:00:12  183
  1818  1.0467e-04  7.5379e-04  4.0347e-04  1.1026e-01  1.0127e-04  0:00:10  182
  1819  1.0325e-04  7.5314e-04  3.9606e-04  1.1904e-01  1.0006e-04  0:00:08  181
  1820  1.0191e-04  7.5236e-04  3.8843e-04  1.2783e-01  9.8923e-05  0:00:06  180
  1821  1.0062e-04  7.5146e-04  3.8059e-04  1.3606e-01  9.7847e-05  0:00:05  179
  1822  9.9408e-05  7.5041e-04  3.7255e-04  1.4366e-01  9.6833e-05  0:00:04  178
  1823  9.8260e-05  7.4928e-04  3.6432e-04  1.5065e-01  9.5886e-05  0:00:03  177
  1824  9.7172e-05  7.4802e-04  3.5591e-04  1.5928e-01  9.4993e-05  0:00:02  176
  1825  9.6192e-05  7.4662e-04  3.4732e-04  1.6678e-01  9.4204e-05  0:00:02  175
  1826  9.5369e-05  7.4508e-04  3.3857e-04  1.7364e-01  9.3567e-05  0:00:02  174

  iter  continuity  x-velocity  y-velocity  z-velocity      energy     time/iter
  1827  9.4691e-05  7.4340e-04  3.2968e-04  1.8034e-01  9.3071e-05  0:00:01  173
  1828  9.4077e-05  7.4160e-04  3.2067e-04  1.9050e-01  9.2629e-05  0:00:01  172
  1829  9.3504e-05  7.3968e-04  3.1156e-04  2.0358e-01  9.2219e-05  0:00:01  171
  1830  9.2979e-05  7.3764e-04  3.0236e-04  2.1935e-01  9.1848e-05  0:00:01  170
  1831  9.2499e-05  7.3547e-04  2.9310e-04  2.3502e-01  9.1512e-05  0:00:00  169
  1832  9.2057e-05  7.3317e-04  2.8380e-04  2.4978e-01  9.1203e-05  0:00:34  168
  1833  9.1619e-05  7.3075e-04  2.7448e-04  2.5364e-01  9.0887e-05  0:00:27  167
  1834  9.1208e-05  7.2821e-04  2.6517e-04  2.4759e-01  9.0588e-05  0:00:21  166
  1835  9.0826e-05  7.2554e-04  2.5589e-04  2.3863e-01  9.0307e-05  0:00:17  165
  1836  9.0493e-05  7.2277e-04  2.4668e-04  2.3225e-01  9.0065e-05  0:00:14  164
  1837  9.0197e-05  7.1990e-04  2.3757e-04  2.2902e-01  8.9848e-05  0:00:11  163

  iter  continuity  x-velocity  y-velocity  z-velocity      energy     time/iter
  1838  8.9927e-05  7.1694e-04  2.2858e-04  2.2753e-01  8.9648e-05  0:00:09  162
  1839  8.9678e-05  7.1390e-04  2.1976e-04  2.2681e-01  8.9458e-05  0:00:07  161
  1840  8.9437e-05  7.1077e-04  2.1114e-04  2.3120e-01  8.9266e-05  0:00:05  160
  1841  8.9199e-05  7.0762e-04  2.0275e-04  2.2753e-01  8.9066e-05  0:00:04  159
  1842  8.8921e-05  7.0457e-04  1.9454e-04  2.2265e-01  8.8817e-05  0:00:03  158
  1843  8.8565e-05  7.0136e-04  1.8676e-04  2.2003e-01  8.8481e-05  0:00:03  157
  1844  8.8272e-05  6.9805e-04  1.7938e-04  2.1365e-01  8.8197e-05  0:00:02  156
  1845  8.8037e-05  6.9470e-04  1.7239e-04  2.0396e-01  8.7962e-05  0:00:02  155
  1846  8.7850e-05  6.9134e-04  1.6582e-04  1.9329e-01  8.7766e-05  0:00:01  154
  1847  8.7701e-05  6.8799e-04  1.5971e-04  1.8220e-01  8.7599e-05  0:00:01  153
  1848  8.7590e-05  6.8465e-04  1.5412e-04  1.7152e-01  8.7459e-05  0:00:01  152

  iter  continuity  x-velocity  y-velocity  z-velocity      energy     time/iter
  1849  8.7521e-05  6.8133e-04  1.4910e-04  1.6142e-01  8.7355e-05  0:00:01  151
  1850  8.7507e-05  6.7804e-04  1.4469e-04  1.5673e-01  8.7295e-05  0:00:01  150
  1851  8.7556e-05  6.7480e-04  1.4092e-04  1.6347e-01  8.7290e-05  0:00:30  149
  1852  8.7668e-05  6.7161e-04  1.3783e-04  1.8092e-01  8.7341e-05  0:00:24  148
  1853  8.7896e-05  6.6847e-04  1.3546e-04  2.0343e-01  8.7500e-05  0:00:19  147
  1854  8.8296e-05  6.6544e-04  1.3378e-04  2.2348e-01  8.7824e-05  0:00:15  146
  1855  8.8793e-05  6.6251e-04  1.3278e-04  2.3519e-01  8.8238e-05  0:00:12  145
  1856  8.9370e-05  6.5964e-04  1.3248e-04  2.3576e-01  8.8725e-05  0:00:10  144
  1857  9.0003e-05  6.5683e-04  1.3286e-04  2.2531e-01  8.9262e-05  0:00:08  143
  1858  9.0661e-05  6.5406e-04  1.3390e-04  2.0761e-01  8.9818e-05  0:00:06  142
  1859  9.1378e-05  6.5139e-04  1.3555e-04  1.8751e-01  9.0427e-05  0:00:05  141

  iter  continuity  x-velocity  y-velocity  z-velocity      energy     time/iter
  1860  9.2128e-05  6.4878e-04  1.3779e-04  1.7153e-01  9.1063e-05  0:00:04  140
  1861  9.2906e-05  6.4563e-04  1.4055e-04  1.6800e-01  9.1721e-05  0:00:03  139
  1862  9.3813e-05  6.4279e-04  1.4378e-04  1.7976e-01  9.2505e-05  0:00:02  138
  1863  9.4720e-05  6.4023e-04  1.4745e-04  2.0411e-01  9.3284e-05  0:00:02  137
  1864  9.5637e-05  6.3785e-04  1.5154e-04  2.3720e-01  9.4069e-05  0:00:02  136
  1865  9.6587e-05  6.3560e-04  1.5599e-04  2.7593e-01  9.4882e-05  0:00:01  135
  1866  9.7564e-05  6.3310e-04  1.6079e-04  3.1438e-01  9.5720e-05  0:00:01  134
  1867  9.8609e-05  6.3085e-04  1.6588e-04  3.4585e-01  9.6624e-05  0:00:01  133
  1868  9.9658e-05  6.2880e-04  1.7124e-04  3.6787e-01  9.7528e-05  0:00:01  132
  1869  1.0070e-04  6.2690e-04  1.7686e-04  3.7526e-01  9.8423e-05  0:00:00  131
  1870  1.0173e-04  6.2485e-04  1.8272e-04  3.6944e-01  9.9302e-05  0:00:26  130

  iter  continuity  x-velocity  y-velocity  z-velocity      energy     time/iter
  1871  1.0286e-04  6.2256e-04  1.8878e-04  3.5517e-01  1.0028e-04  0:00:21  129
  1872  1.0402e-04  6.2058e-04  1.9500e-04  3.3538e-01  1.0130e-04  0:00:17  128
  1873  1.0517e-04  6.1880e-04  2.0139e-04  3.1474e-01  1.0229e-04  0:00:13  127
  1874  1.0629e-04  6.1715e-04  2.0792e-04  2.9741e-01  1.0326e-04  0:00:10  126
  1875  1.0737e-04  6.1560e-04  2.1459e-04  2.8127e-01  1.0419e-04  0:00:08  125
  1876  1.0841e-04  6.1413e-04  2.2138e-04  2.6596e-01  1.0506e-04  0:00:07  124
  1877  1.0932e-04  6.1263e-04  2.2828e-04  2.5591e-01  1.0582e-04  0:00:05  123
  1878  1.1016e-04  6.1117e-04  2.3527e-04  2.5116e-01  1.0650e-04  0:00:04  122
  1879  1.1099e-04  6.0983e-04  2.4231e-04  2.4682e-01  1.0717e-04  0:00:03  121
  1880  1.1169e-04  6.0860e-04  2.4942e-04  2.4039e-01  1.0770e-04  0:00:03  120
  1881  1.1228e-04  6.0737e-04  2.5660e-04  2.3459e-01  1.0812e-04  0:00:02  119

  iter  continuity  x-velocity  y-velocity  z-velocity      energy     time/iter
  1882  1.1280e-04  6.0617e-04  2.6382e-04  2.2867e-01  1.0848e-04  0:00:02  118
  1883  1.1326e-04  6.0499e-04  2.7107e-04  2.1738e-01  1.0878e-04  0:00:01  117
  1884  1.1368e-04  6.0385e-04  2.7833e-04  2.0491e-01  1.0902e-04  0:00:01  116
  1885  1.1406e-04  6.0274e-04  2.8557e-04  1.9026e-01  1.0923e-04  0:00:01  115
  1886  1.1441e-04  6.0168e-04  2.9278e-04  1.7534e-01  1.0942e-04  0:00:01  114
  1887  1.1474e-04  6.0069e-04  2.9995e-04  1.6118e-01  1.0959e-04  0:00:01  113
  1888  1.1506e-04  5.9977e-04  3.0706e-04  1.4886e-01  1.0975e-04  0:00:23  112
  1889  1.1538e-04  5.9890e-04  3.1409e-04  1.3841e-01  1.0991e-04  0:00:18  111
  1890  1.1569e-04  5.9801e-04  3.2104e-04  1.2949e-01  1.1007e-04  0:00:14  110
  1891  1.1617e-04  5.9708e-04  3.2788e-04  1.2225e-01  1.1041e-04  0:00:11  109
  1892  1.1692e-04  5.9634e-04  3.3460e-04  1.1659e-01  1.1104e-04  0:00:09  108

  iter  continuity  x-velocity  y-velocity  z-velocity      energy     time/iter
  1893  1.1734e-04  5.9571e-04  3.4120e-04  1.1200e-01  1.1133e-04  0:00:07  107
  1894  1.1764e-04  5.9510e-04  3.4766e-04  1.0840e-01  1.1149e-04  0:00:06  106
  1895  1.1793e-04  5.9455e-04  3.5397e-04  1.0534e-01  1.1166e-04  0:00:04  105
  1896  1.1821e-04  5.9408e-04  3.6012e-04  1.0287e-01  1.1182e-04  0:00:04  104
  1897  1.1847e-04  5.9367e-04  3.6609e-04  1.0052e-01  1.1196e-04  0:00:03  103
  1898  1.1868e-04  5.9335e-04  3.7188e-04  9.8234e-02  1.1205e-04  0:00:02  102
  1899  1.1884e-04  5.9310e-04  3.7748e-04  9.5917e-02  1.1210e-04  0:00:02  101
  1900  1.1894e-04  5.9306e-04  3.8288e-04  9.3143e-02  1.1208e-04  0:00:01  100
  1901  1.1899e-04  5.9338e-04  3.8808e-04  8.9938e-02  1.1203e-04  0:00:01   99
  1902  1.1925e-04  5.9371e-04  3.9308e-04  8.6648e-02  1.1219e-04  0:00:01   98
  1903  1.1943e-04  5.9404e-04  3.9787e-04  8.3069e-02  1.1228e-04  0:00:01   97

  iter  continuity  x-velocity  y-velocity  z-velocity      energy     time/iter
  1904  1.1944e-04  5.9436e-04  4.0243e-04  7.9455e-02  1.1220e-04  0:00:01   96
  1905  1.1938e-04  5.9468e-04  4.0677e-04  7.5806e-02  1.1204e-04  0:00:00   95
  1906  1.1927e-04  5.9499e-04  4.1089e-04  7.1905e-02  1.1184e-04  0:00:00   94
  1907  1.1910e-04  5.9530e-04  4.1478e-04  6.8053e-02  1.1158e-04  0:00:19   93
  1908  1.1883e-04  5.9556e-04  4.1846e-04  6.4256e-02  1.1121e-04  0:00:15   92
  1909  1.1862e-04  5.9577e-04  4.2191e-04  6.0513e-02  1.1091e-04  0:00:12   91
  1910  1.1849e-04  5.9593e-04  4.2515e-04  5.6867e-02  1.1071e-04  0:00:09   90
  1911  1.1844e-04  5.9615e-04  4.2817e-04  5.3185e-02  1.1060e-04  0:00:07   89
  1912  1.1852e-04  5.9637e-04  4.3099e-04  4.9763e-02  1.1063e-04  0:00:06   88
  1913  1.1868e-04  5.9670e-04  4.3360e-04  4.6322e-02  1.1075e-04  0:00:05   87
  1914  1.1886e-04  5.9708e-04  4.3603e-04  4.3249e-02  1.1089e-04  0:00:04   86

  iter  continuity  x-velocity  y-velocity  z-velocity      energy     time/iter
  1915  1.1909e-04  5.9749e-04  4.3826e-04  4.0236e-02  1.1110e-04  0:00:03   85
  1916  1.1946e-04  5.9761e-04  4.4031e-04  3.7335e-02  1.1145e-04  0:00:02   84
  1917  1.2025e-04  5.9753e-04  4.4219e-04  3.4734e-02  1.1227e-04  0:00:02   83
  1918  1.2080e-04  5.9770e-04  4.4388e-04  3.2403e-02  1.1283e-04  0:00:01   82
  1919  1.2129e-04  5.9800e-04  4.4541e-04  3.0365e-02  1.1332e-04  0:00:01   81
  1920  1.2183e-04  5.9842e-04  4.4679e-04  2.8533e-02  1.1388e-04  0:00:01   80
  1921  1.2270e-04  5.9906e-04  4.4802e-04  2.6898e-02  1.1480e-04  0:00:01   79
  1922  1.2398e-04  5.9985e-04  4.4912e-04  2.5459e-02  1.1615e-04  0:00:01   78
  1923  1.2555e-04  6.0076e-04  4.5008e-04  2.4218e-02  1.1782e-04  0:00:00   77
  1924  1.2735e-04  6.0181e-04  4.5093e-04  2.3190e-02  1.1972e-04  0:00:00   76
  1925  1.2929e-04  6.0302e-04  4.5167e-04  2.2317e-02  1.2178e-04  0:00:00   75

  iter  continuity  x-velocity  y-velocity  z-velocity      energy     time/iter
  1926  1.3140e-04  6.0438e-04  4.5231e-04  2.1520e-02  1.2402e-04  0:00:00   74
  1927  1.3340e-04  6.0590e-04  4.5284e-04  2.0778e-02  1.2614e-04  0:00:15   73
  1928  1.3530e-04  6.0753e-04  4.5329e-04  2.0054e-02  1.2815e-04  0:00:12   72
  1929  1.3713e-04  6.0911e-04  4.5365e-04  1.9374e-02  1.3008e-04  0:00:09   71
  1930  1.3774e-04  6.1070e-04  4.5401e-04  1.8764e-02  1.3074e-04  0:00:07   70
  1931  1.3857e-04  6.1280e-04  4.5431e-04  1.8318e-02  1.3163e-04  0:00:06   69
  1932  1.3943e-04  6.1503e-04  4.5442e-04  1.7945e-02  1.3254e-04  0:00:05   68
  1933  1.3985e-04  6.1712e-04  4.5443e-04  1.7906e-02  1.3300e-04  0:00:04   67
  1934  1.3989e-04  6.1901e-04  4.5439e-04  1.8057e-02  1.3306e-04  0:00:03   66
  1935  1.3962e-04  6.2070e-04  4.5429e-04  1.7836e-02  1.3279e-04  0:00:02   65
  1936  1.3904e-04  6.2213e-04  4.5412e-04  1.7363e-02  1.3220e-04  0:00:02   64

  iter  continuity  x-velocity  y-velocity  z-velocity      energy     time/iter
  1937  1.3815e-04  6.2324e-04  4.5389e-04  1.6764e-02  1.3128e-04  0:00:01   63
  1938  1.3697e-04  6.2400e-04  4.5359e-04  1.6166e-02  1.3007e-04  0:00:01   62
  1939  1.3568e-04  6.2440e-04  4.5323e-04  1.5578e-02  1.2873e-04  0:00:01   61
  1940  1.3410e-04  6.2431e-04  4.5279e-04  1.5089e-02  1.2709e-04  0:00:01   60
  1941  1.3229e-04  6.2379e-04  4.5227e-04  1.4598e-02  1.2521e-04  0:00:01   59
  1942  1.3041e-04  6.2281e-04  4.5168e-04  1.4099e-02  1.2324e-04  0:00:00   58
  1943  1.2856e-04  6.2145e-04  4.5101e-04  1.3707e-02  1.2132e-04  0:00:00   57
  1944  1.2674e-04  6.1987e-04  4.5028e-04  1.3336e-02  1.1942e-04  0:00:00   56
  1945  1.2490e-04  6.1812e-04  4.4949e-04  1.2991e-02  1.1750e-04  0:00:00   55
  1946  1.2310e-04  6.1628e-04  4.4865e-04  1.2663e-02  1.1562e-04  0:00:11   54
  1947  1.2140e-04  6.1441e-04  4.4775e-04  1.2347e-02  1.1384e-04  0:00:09   53

  iter  continuity  x-velocity  y-velocity  z-velocity      energy     time/iter
  1948  1.1981e-04  6.1256e-04  4.4681e-04  1.2029e-02  1.1219e-04  0:00:07   52
  1949  1.1829e-04  6.1046e-04  4.4583e-04  1.1707e-02  1.1060e-04  0:00:05   51
  1950  1.1371e-04  6.0540e-04  4.4480e-04  1.1405e-02  1.0574e-04  0:00:04   50
  1951  1.1103e-04  6.0133e-04  4.4370e-04  1.1698e-02  1.0290e-04  0:00:03   49
  1952  1.0907e-04  5.9785e-04  4.4255e-04  1.1733e-02  1.0083e-04  0:00:03   48
  1953  1.0743e-04  5.9449e-04  4.4137e-04  1.1553e-02  9.9105e-05  0:00:02   47
  1954  1.0600e-04  5.9092e-04  4.4015e-04  1.1274e-02  9.7604e-05  0:00:02   46
  1955  1.0485e-04  5.8748e-04  4.3891e-04  1.0963e-02  9.6412e-05  0:00:01   45
  1956  1.0386e-04  5.8415e-04  4.3765e-04  1.0620e-02  9.5381e-05  0:00:01   44
  1957  1.0298e-04  5.8093e-04  4.3638e-04  1.0309e-02  9.4484e-05  0:00:01   43
  1958  1.0220e-04  5.7782e-04  4.3509e-04  1.0019e-02  9.3693e-05  0:00:01   42

  iter  continuity  x-velocity  y-velocity  z-velocity      energy     time/iter
  1959  1.0149e-04  5.7481e-04  4.3380e-04  9.7167e-03  9.2972e-05  0:00:00   41
  1960  1.0079e-04  5.7195e-04  4.3248e-04  9.4693e-03  9.2262e-05  0:00:00   40
  1961  1.0017e-04  5.6921e-04  4.3117e-04  9.2332e-03  9.1646e-05  0:00:00   39
  1962  9.9618e-05  5.6658e-04  4.2983e-04  8.9908e-03  9.1108e-05  0:00:00   38
  1963  9.9106e-05  5.6406e-04  4.2849e-04  8.7649e-03  9.0611e-05  0:00:00   37
  1964  9.8617e-05  5.6163e-04  4.2713e-04  8.5500e-03  9.0140e-05  0:00:07   36
  1965  9.8142e-05  5.5928e-04  4.2577e-04  8.3407e-03  8.9684e-05  0:00:06   35
  1966  9.7674e-05  5.5702e-04  4.2439e-04  8.1420e-03  8.9237e-05  0:00:04   34
  1967  9.7215e-05  5.5483e-04  4.2301e-04  7.9452e-03  8.8801e-05  0:00:03   33
  1968  9.6762e-05  5.5273e-04  4.2161e-04  7.7589e-03  8.8372e-05  0:00:03   32
  1969  9.6315e-05  5.5069e-04  4.2021e-04  7.5673e-03  8.7950e-05  0:00:02   31

  iter  continuity  x-velocity  y-velocity  z-velocity      energy     time/iter
  1970  9.5872e-05  5.4871e-04  4.1879e-04  7.3829e-03  8.7532e-05  0:00:02   30
  1971  9.5407e-05  5.4680e-04  4.1737e-04  7.1951e-03  8.7092e-05  0:00:01   29
  1972  9.4949e-05  5.4496e-04  4.1593e-04  7.0161e-03  8.6659e-05  0:00:01   28
  1973  9.4503e-05  5.4317e-04  4.1448e-04  6.8403e-03  8.6239e-05  0:00:01   27
  1974  9.4062e-05  5.4140e-04  4.1302e-04  6.6671e-03  8.5824e-05  0:00:01   26
  1975  9.3623e-05  5.3964e-04  4.1154e-04  6.5597e-03  8.5411e-05  0:00:00   25
  1976  9.3188e-05  5.3791e-04  4.1006e-04  6.4765e-03  8.5001e-05  0:00:00   24
  1977  9.2623e-05  5.3614e-04  4.0855e-04  6.3510e-03  8.4450e-05  0:00:00   23
  1978  9.2274e-05  5.3440e-04  4.0704e-04  6.2116e-03  8.4134e-05  0:00:00   22
  1979  9.1918e-05  5.3268e-04  4.0551e-04  6.0694e-03  8.3809e-05  0:00:00   21
  1980  9.1524e-05  5.3099e-04  4.0397e-04  5.9426e-03  8.3442e-05  0:00:04   20

  iter  continuity  x-velocity  y-velocity  z-velocity      energy     time/iter
  1981  9.1105e-05  5.2925e-04  4.0241e-04  5.8519e-03  8.3047e-05  0:00:03   19
  1982  9.0683e-05  5.2750e-04  4.0083e-04  5.7927e-03  8.2648e-05  0:00:02   18
  1983  9.0273e-05  5.2571e-04  3.9924e-04  5.7627e-03  8.2260e-05  0:00:02   17
  1984  8.9881e-05  5.2390e-04  3.9763e-04  5.7570e-03  8.1890e-05  0:00:01   16
  1985  8.9510e-05  5.2206e-04  3.9600e-04  5.7621e-03  8.1542e-05  0:00:01   15
  1986  8.9159e-05  5.2020e-04  3.9436e-04  5.7752e-03  8.1215e-05  0:00:01   14
  1987  8.8827e-05  5.1831e-04  3.9271e-04  5.7819e-03  8.0907e-05  0:00:01   13
  1988  8.8510e-05  5.1640e-04  3.9105e-04  5.7656e-03  8.0615e-05  0:00:00   12
  1989  8.8200e-05  5.1448e-04  3.8939e-04  5.7304e-03  8.0328e-05  0:00:00   11
  1990  8.7896e-05  5.1251e-04  3.8771e-04  5.6723e-03  8.0047e-05  0:00:00   10
  1991  8.7613e-05  5.1050e-04  3.8604e-04  5.7225e-03  7.9787e-05  0:00:00    9

  iter  continuity  x-velocity  y-velocity  z-velocity      energy     time/iter
  1992  8.7346e-05  5.0846e-04  3.8437e-04  5.9761e-03  7.9544e-05  0:00:00    8
  1993  8.7092e-05  5.0639e-04  3.8271e-04  6.2305e-03  7.9313e-05  0:00:00    7
  1994  8.6846e-05  5.0429e-04  3.8105e-04  6.4211e-03  7.9089e-05  0:00:00    6
  1995  8.6604e-05  5.0217e-04  3.7941e-04  6.5433e-03  7.8869e-05  0:00:00    5
  1996  8.6363e-05  5.0003e-04  3.7778e-04  6.5637e-03  7.8649e-05  0:00:00    4
  1997  8.6124e-05  4.9787e-04  3.7619e-04  6.5342e-03  7.8430e-05  0:00:00    3
  1998  8.5885e-05  4.9569e-04  3.7462e-04  6.4403e-03  7.8211e-05  0:00:00    2
  1999  8.5648e-05  4.9350e-04  3.7309e-04  6.3496e-03  7.7992e-05  0:00:00    1
  2000  8.5411e-05  4.9130e-04  3.7159e-04  6.2839e-03  7.7774e-05  0:00:00    0

> 
adjoint/                parallel/               server/
define/                 parametric-study/       solve/
display/                plot/                   surface/
exit                    preferences/            turbo-workflow/
file/                   print-license-usage     views/
mesh/                   report/

> /file/write-case-data project1
Fast-loading "C:\PROGRA~1\ANSYSI~1\v231\fluent\fluent23.1.0\\addons\afd\lib\hdfio.bin"
Done.

Writing to Engs-30669:"C:\Users\kebl7595\Desktop\CFD\Runs\Actual Data\18 degree\project1.cas.h5" in NODE0 mode and compression level 1 ...
       12996 cells,     1 zone  ...
       43722 faces,     8 zones ...
       17864 nodes,     1 zone  ...
  Done.
Done.

Writing to Engs-30669:"C:\Users\kebl7595\Desktop\CFD\Runs\Actual Data\18 degree\project1.dat.h5" in NODE0 mode and compression level 1 ...
  Writing results.
Done.

> /file/export/ascii "./surface.dat" wing te () no pressure mach-number quit no

Writing "./surface.dat"...

Writing information to ascii file ...
Done.


> /plot/plot y "data.dat" no n n pressure-coefficient no n x-coordinate wing ()

> /report/forces/wall-forces y -0.30902 0.95106 0 y "Force"

> /exit

Posting ANSYS Product Improvement Program performance data 
Done.
Auto-Transcript Stop Time:  14:54:54, 20 May 2024 GMT Daylight Time 
Total Transcript Time: 2 Minute 13 Second.
