Auto-Transcript Start Time:  12:16:33, 22 May 2024 GMT Daylight Time 
Current Directory: "C:\Users\kebl7595\Desktop\CFD\Runs\Flap\Re 3e5\large flap"

              Welcome to ANSYS Fluent 2023 R1

              Copyright 1987-2023 ANSYS, Inc. All Rights Reserved.
              Unauthorized use, distribution or duplication is prohibited.
              This product is subject to U.S. laws governing export and re-export.
              For full Legal Notice, see documentation.

Build Time: Nov 28 2022 09:52:02 EST  Build Id: 10208  
 
Connected License Server List:	1055@ansyslic.eng.ox.ac.uk

*********************************************
Info: Your license enables 4-way parallel execution.
For faster simulations, please start the application with the appropriate parallel options.
*********************************************


     --------------------------------------------------------------
     This is an academic version of ANSYS FLUENT. Usage of this product
     license is limited to the terms and conditions specified in your ANSYS
     license form, additional terms section.
     --------------------------------------------------------------
Host spawning Node 0 on machine "Engs-30669" (win64).

------------------------------------------------------------------------------------
ID    Hostname    Core  O.S.         PID    Vendor                                 
------------------------------------------------------------------------------------
n0    Engs-30669  1/32  Windows-x64  44444  13th Gen Intel(R) Core(TM) i9-13900    
host  Engs-30669        Windows-x64  26008  13th Gen Intel(R) Core(TM) i9-13900    

MPI Option Selected: intel
------------------------------------------------------------------------------------

Cleanup script file is C:\\Users\\kebl7595\\Desktop\\CFD\\Runs\\Flap\\Re 3e5\\large flap\\cleanup-fluent-Engs-30669-26008.bat

Posting ANSYS Product Improvement Program startup data
Done.

Reading journal file C:/Users/kebl7595/Desktop/CFD/Runs/Flap/Re 3e5/large flap/project1.jou...

> /file/set-batch-options no no no 

> 
define/                 parametric-study/       solve/
display/                plot/                   surface/
exit                    preferences/            switch-to-meshing-mode
file/                   print-license-usage     turbo-workflow/
mesh/                   report/                 views/
parallel/               server/

> /file/import/cgns/mesh  "./project1.cgns"
Engs-30669 has other FLUENT parallel processes running.                       Process affinity not being set.

Importing "./project1.cgns"

Opening library "C:\\PROGRA~1\\ANSYSI~1\\v231\\fluent\\fluent23.1.0\\vki\\win64\\devtools4.4.6.dll"... done.

Read    41568 nodes
   30372 hexahedral cells, zone  1
   21856 quadrilateral wall faces, zone  2.
   79714 quadrilateral interior faces, zone  3.
     474 quadrilateral interface faces, zone  4.

Building...
     mesh
     materials,
     interface,
     domains,
     zones,
	interface-default_subface
	default_interior-1
	default_subface
	default
     parallel,
The automatic selection for flux type has changed to Rhie-Chow: momentum based.

Done.


> 
adjoint/                parallel/               server/
define/                 parametric-study/       solve/
display/                plot/                   surface/
exit                    preferences/            turbo-workflow/
file/                   print-license-usage     views/
mesh/                   report/

> /define/models/solver/density-based-implicit yes

> 
adjoint/                parallel/               server/
define/                 parametric-study/       solve/
display/                plot/                   surface/
exit                    preferences/            turbo-workflow/
file/                   print-license-usage     views/
mesh/                   report/

> /define/models/energy? yes yes invalid command [yes]
yes

> /define/models/viscous/kw-standard? yes

> 
adjoint/                parallel/               server/
define/                 parametric-study/       solve/
display/                plot/                   surface/
exit                    preferences/            turbo-workflow/
file/                   print-license-usage     views/
mesh/                   report/

> /define/materials/change-create air air air is a fluid
yes 
Density
ideal-gas no data required.

no no no no no no

> 
adjoint/                parallel/               server/
define/                 parametric-study/       solve/
display/                plot/                   surface/
exit                    preferences/            turbo-workflow/
file/                   print-license-usage     views/
mesh/                   report/

> /mesh/modify-zones/sep-face-zone-angle 2 90 yes

 10124 faces in contiguous region 0
 567 faces in contiguous region 1
 618 faces in contiguous region 2
 10124 faces in contiguous region 3
 423 faces in contiguous region 4
 Separates zone 2 into 5 zone(s).
Updating new zone information...
   created new zone default_subface:009 from default_subface
   created new zone default_subface:008 from default_subface
   created new zone default_subface:007 from default_subface
   created new zone default_subface:006 from default_subface
done.

> 
adjoint/                parallel/               server/
define/                 parametric-study/       solve/
display/                plot/                   surface/
exit                    preferences/            turbo-workflow/
file/                   print-license-usage     views/
mesh/                   report/

> /define/boundary-conditions/zone-name  6 wing

> /define/boundary-conditions/zone-name  2 sym1

> /define/boundary-conditions/zone-name  8 sym2

> 
adjoint/                parallel/               server/
define/                 parametric-study/       solve/
display/                plot/                   surface/
exit                    preferences/            turbo-workflow/
file/                   print-license-usage     views/
mesh/                   report/

> /define/boundary-conditions/zone-name  7 far1

> /define/boundary-conditions/zone-name 9 far2

> 
adjoint/                parallel/               server/
define/                 parametric-study/       solve/
display/                plot/                   surface/
exit                    preferences/            turbo-workflow/
file/                   print-license-usage     views/
mesh/                   report/

> /define/boundary-conditions/zone-type  7 pressure-far-field

> /define/boundary-conditions/zone-type 9 pressure-far-field

> /define/boundary-conditions/zone-type  2 symmetry

> /define/boundary-conditions/zone-type  8 symmetry

> 
adjoint/                parallel/               server/
define/                 parametric-study/       solve/
display/                plot/                   surface/
exit                    preferences/            turbo-workflow/
file/                   print-license-usage     views/
mesh/                   report/

> /define/boundary-conditions/pressure-far-field (far2 far1)
far1 no -0.8642 no 0.1 no 300 yes no 0.939693 no -0.342020 no 0. no yes 5 0.02

> /define/boundary-conditions/pressure-far-field (far2 far1)
far2 no -0.8642 no 0.1 no 300 yes no 0.939693 no -0.342020 no 0. no yes 5 0.02

> 
adjoint/                parallel/               server/
define/                 parametric-study/       solve/
display/                plot/                   surface/
exit                    preferences/            turbo-workflow/
file/                   print-license-usage     views/
mesh/                   report/

> /solve/initialize/compute-defaults/pressure-far-field (far2 far1)
far1

> /solve/initialize/initialize-flow

> 
adjoint/                parallel/               server/
define/                 parametric-study/       solve/
display/                plot/                   surface/
exit                    preferences/            turbo-workflow/
file/                   print-license-usage     views/
mesh/                   report/

> /solve/monitors/residual/convergence-criteria 1.e-9 1.e-9 1.e-9 1.e-9 1.e-9 1.e-9 1.e-9

> /solve/iterate 2000

  iter  continuity  x-velocity  y-velocity  z-velocity      energy           k       omega     time/iter
     1  1.0000e+00  1.0000e+00  1.0000e+00  1.0000e+00  1.0000e+00  3.8318e-02  4.8761e-02  0:00:00 1999
     2  4.5346e-01  2.5296e-01  2.5246e-01  1.0000e+00  4.5617e-01  3.3729e-02  3.1600e-02  0:00:00 1998
     3  2.0630e-01  1.3816e-01  1.5031e-01  1.0000e+00  2.0665e-01  2.9969e-02  2.5782e-02  0:33:17 1997
     4  1.6202e-01  7.9484e-02  9.4761e-02  1.0000e+00  1.6303e-01  2.6950e-02  2.3122e-02  0:26:37 1996
     5  1.4075e-01  5.4807e-02  7.2896e-02  1.0000e+00  1.4207e-01  2.4502e-02  2.1441e-02  0:21:17 1995
     6  1.2557e-01  3.8656e-02  5.8876e-02  1.0773e+00  1.2678e-01  2.2408e-02  2.0024e-02  0:17:01 1994
     7  1.1435e-01  2.6197e-02  4.8198e-02  1.1357e+00  1.1535e-01  2.0603e-02  1.8764e-02  0:13:36 1993
     8  1.0751e-01  1.7364e-02  4.0770e-02  1.1870e+00  1.0838e-01  1.9065e-02  1.7611e-02  0:10:53 1992
     9  1.0093e-01  1.2318e-02  3.6060e-02  1.3002e+00  1.0174e-01  1.7795e-02  1.6625e-02  0:08:42 1991
    10  9.2859e-02  1.0210e-02  3.3572e-02  1.3785e+00  9.3587e-02  1.6705e-02  1.5749e-02  0:13:35 1990
    11  8.2233e-02  9.5477e-03  3.2552e-02  1.4105e+00  8.2851e-02  1.5754e-02  1.4931e-02  0:10:52 1989

  iter  continuity  x-velocity  y-velocity  z-velocity      energy           k       omega     time/iter
    12  6.9534e-02  9.2577e-03  3.2403e-02  1.3240e+00  7.0018e-02  1.4928e-02  1.4146e-02  0:08:41 1988
    13  5.7867e-02  8.8359e-03  3.3170e-02  1.1795e+00  5.8221e-02  1.4219e-02  1.3384e-02  0:06:57 1987
    14  4.9192e-02  8.1583e-03  3.4800e-02  1.0322e+00  4.9442e-02  1.3605e-02  1.2647e-02  0:05:33 1986
    15  4.4330e-02  7.3239e-03  3.6918e-02  9.7048e-01  4.4514e-02  1.3072e-02  1.1997e-02  0:04:26 1985
    16  4.2846e-02  6.5335e-03  3.9285e-02  1.0364e+00  4.3002e-02  1.2608e-02  1.1489e-02  0:03:33 1984
    17  4.4233e-02  5.9859e-03  4.1673e-02  1.2062e+00  4.4399e-02  1.2183e-02  1.1097e-02  0:09:27 1983
    18  4.7740e-02  5.9059e-03  4.3854e-02  1.3736e+00  4.7940e-02  1.1827e-02  1.0811e-02  0:07:33 1982
    19  5.2759e-02  6.4454e-03  4.5374e-02  1.4975e+00  5.3011e-02  1.1483e-02  1.0592e-02  0:06:03 1981
    20  5.8808e-02  7.5275e-03  4.6300e-02  1.5444e+00  5.9123e-02  1.1189e-02  1.0452e-02  0:04:50 1980
    21  6.4460e-02  8.9487e-03  4.6618e-02  1.5425e+00  6.4827e-02  1.0942e-02  1.0340e-02  0:03:52 1979
    22  6.9091e-02  1.0370e-02  4.6197e-02  1.5279e+00  6.9497e-02  1.0728e-02  1.0303e-02  0:03:05 1978

  iter  continuity  x-velocity  y-velocity  z-velocity      energy           k       omega     time/iter
    23  7.3719e-02  1.1596e-02  4.5216e-02  1.5150e+00  7.4168e-02  1.0553e-02  1.0275e-02  0:02:28 1977
    24  7.7470e-02  1.2457e-02  4.3926e-02  1.5006e+00  7.7955e-02  1.0388e-02  1.0181e-02  0:08:34 1976
    25  7.9414e-02  1.3012e-02  4.2330e-02  1.4913e+00  7.9910e-02  1.0229e-02  1.0042e-02  0:06:51 1975
    26  7.8938e-02  1.3394e-02  4.0368e-02  1.4837e+00  7.9412e-02  1.0108e-02  9.7789e-03  0:05:28 1974
    27  7.5779e-02  1.3590e-02  3.8401e-02  1.4687e+00  7.6201e-02  9.9821e-03  9.4574e-03  0:04:23 1973
    28  7.0219e-02  1.3495e-02  3.6592e-02  1.4452e+00  7.0566e-02  9.8704e-03  9.1870e-03  0:03:30 1972
    29  6.2775e-02  1.3071e-02  3.4842e-02  1.4077e+00  6.3037e-02  9.7606e-03  8.9879e-03  0:02:48 1971
    30  5.4246e-02  1.2297e-02  3.3103e-02  1.3501e+00  5.4426e-02  9.6763e-03  8.8269e-03  0:08:48 1970
    31  4.5413e-02  1.1244e-02  3.1452e-02  1.2822e+00  4.5522e-02  9.5727e-03  8.6321e-03  0:07:02 1969
    32  3.7243e-02  9.9167e-03  2.9856e-02  1.2035e+00  3.7298e-02  9.4741e-03  8.5545e-03  0:05:38 1968
    33  3.0341e-02  8.4565e-03  2.8356e-02  1.1327e+00  3.0361e-02  9.3928e-03  8.4352e-03  0:04:30 1967

  iter  continuity  x-velocity  y-velocity  z-velocity      energy           k       omega     time/iter
    34  2.5351e-02  7.0768e-03  2.7154e-02  1.0806e+00  2.5359e-02  9.3409e-03  8.2695e-03  0:03:36 1966
    35  2.2544e-02  5.8986e-03  2.6259e-02  1.0515e+00  2.2559e-02  9.2976e-03  8.1675e-03  0:02:53 1965
    36  2.1558e-02  5.1057e-03  2.5745e-02  1.0294e+00  2.1590e-02  9.2428e-03  8.0330e-03  0:02:18 1964
    37  2.1794e-02  4.7741e-03  2.5536e-02  1.0162e+00  2.1847e-02  9.1828e-03  7.8387e-03  0:08:23 1963
    38  2.2733e-02  4.7217e-03  2.5553e-02  1.0370e+00  2.2806e-02  9.1092e-03  7.6624e-03  0:06:42 1962
    39  2.3954e-02  4.8002e-03  2.5718e-02  1.0355e+00  2.4044e-02  9.0449e-03  7.4637e-03  0:05:22 1961
    40  2.5108e-02  4.9400e-03  2.6010e-02  1.0234e+00  2.5214e-02  9.0183e-03  7.2737e-03  0:04:17 1960
    41  2.5999e-02  5.0534e-03  2.6374e-02  1.0002e+00  2.6116e-02  8.9939e-03  7.0962e-03  0:03:26 1959
    42  2.6486e-02  5.0987e-03  2.6777e-02  9.6448e-01  2.6612e-02  8.9532e-03  6.9271e-03  0:02:44 1958
    43  2.6484e-02  5.0882e-03  2.7157e-02  9.3563e-01  2.6615e-02  8.9352e-03  6.7652e-03  0:02:11 1957
    44  2.6026e-02  5.0216e-03  2.7446e-02  9.0590e-01  2.6158e-02  8.9160e-03  6.6259e-03  0:08:16 1956

  iter  continuity  x-velocity  y-velocity  z-velocity      energy           k       omega     time/iter
    45  2.5188e-02  4.9148e-03  2.7625e-02  8.7023e-01  2.5318e-02  8.9052e-03  6.5191e-03  0:06:37 1955
    46  2.4181e-02  4.7745e-03  2.7716e-02  8.2667e-01  2.4306e-02  8.9207e-03  6.4328e-03  0:05:17 1954
    47  2.3285e-02  4.6327e-03  2.7756e-02  7.6986e-01  2.3404e-02  8.9290e-03  6.3616e-03  0:04:14 1953
    48  2.2626e-02  4.5050e-03  2.7769e-02  7.0715e-01  2.2739e-02  8.9434e-03  6.3371e-03  0:03:23 1952
    49  2.2258e-02  4.3977e-03  2.7745e-02  6.4232e-01  2.2366e-02  8.9684e-03  6.3475e-03  0:02:42 1951
    50  2.2390e-02  4.3244e-03  2.7714e-02  5.8833e-01  2.2497e-02  9.0069e-03  6.3697e-03  0:08:40 1950
    51  2.3276e-02  4.2888e-03  2.7764e-02  5.5154e-01  2.3390e-02  9.0303e-03  6.3890e-03  0:06:56 1949
    52  2.4764e-02  4.2867e-03  2.7915e-02  5.3251e-01  2.4890e-02  9.0522e-03  6.4001e-03  0:05:32 1948
    53  2.6777e-02  4.3223e-03  2.8198e-02  5.3057e-01  2.6920e-02  9.0742e-03  6.3998e-03  0:04:26 1947
    54  2.9192e-02  4.3786e-03  2.8669e-02  5.3842e-01  2.9357e-02  9.0848e-03  6.3873e-03  0:03:32 1946
    55  3.1882e-02  4.4373e-03  2.9290e-02  5.5599e-01  3.2070e-02  9.1024e-03  6.3695e-03  0:02:50 1945

  iter  continuity  x-velocity  y-velocity  z-velocity      energy           k       omega     time/iter
    56  3.4594e-02  4.4738e-03  3.0046e-02  5.8028e-01  3.4807e-02  9.1289e-03  6.3449e-03  0:02:16 1944
    57  3.7308e-02  4.5169e-03  3.0964e-02  6.1094e-01  3.7546e-02  9.1550e-03  6.3175e-03  0:01:49 1943
    58  3.9938e-02  4.5443e-03  3.1977e-02  6.3225e-01  4.0201e-02  9.1772e-03  6.2868e-03  0:07:55 1942
    59  4.2028e-02  4.5024e-03  3.2909e-02  6.5006e-01  4.2309e-02  9.2046e-03  6.2567e-03  0:06:20 1941
    60  4.3328e-02  4.4097e-03  3.3597e-02  6.6403e-01  4.3620e-02  9.2334e-03  6.2181e-03  0:05:04 1940
    61  4.4137e-02  4.2794e-03  3.4018e-02  6.7381e-01  4.4434e-02  9.2735e-03  6.1874e-03  0:04:03 1939
    62  4.4633e-02  4.0657e-03  3.4089e-02  6.7408e-01  4.4929e-02  9.3147e-03  6.1798e-03  0:03:14 1938
    63  4.4456e-02  3.7967e-03  3.3774e-02  6.6932e-01  4.4744e-02  9.3545e-03  6.1613e-03  0:02:35 1937
    64  4.3566e-02  3.5208e-03  3.3044e-02  6.6278e-01  4.3834e-02  9.3954e-03  6.1504e-03  0:02:04 1936
    65  4.2355e-02  3.2296e-03  3.1953e-02  6.5777e-01  4.2599e-02  9.4562e-03  6.1353e-03  0:08:06 1935
    66  4.0718e-02  2.9814e-03  3.0478e-02  6.5401e-01  4.0930e-02  9.4949e-03  6.1340e-03  0:06:29 1934

  iter  continuity  x-velocity  y-velocity  z-velocity      energy           k       omega     time/iter
    67  3.8819e-02  2.7856e-03  2.8687e-02  6.5368e-01  3.8995e-02  9.5904e-03  6.1288e-03  0:05:11 1933
    68  3.6744e-02  2.4912e-03  2.6906e-02  6.4830e-01  3.6881e-02  9.6040e-03  6.1152e-03  0:04:09 1932
    69  3.4602e-02  2.4438e-03  2.4810e-02  6.4513e-01  3.4700e-02  9.7446e-03  6.1471e-03  0:03:19 1931
    70  3.2480e-02  2.4358e-03  2.2716e-02  6.4644e-01  3.2540e-02  9.8588e-03  6.1650e-03  0:02:39 1930
    71  3.0453e-02  2.4525e-03  2.0688e-02  6.6125e-01  3.0476e-02  9.9712e-03  6.1302e-03  0:02:07 1929
    72  2.8669e-02  2.4907e-03  1.8892e-02  6.8523e-01  2.8663e-02  1.0045e-02  6.1373e-03  0:08:07 1928
    73  2.7226e-02  2.5541e-03  1.7433e-02  7.1519e-01  2.7195e-02  1.0276e-02  6.2048e-03  0:06:30 1927
    74  2.6123e-02  2.6191e-03  1.6276e-02  7.4180e-01  2.6076e-02  1.0457e-02  6.1920e-03  0:05:11 1926
    75  2.5312e-02  2.6807e-03  1.5411e-02  7.6460e-01  2.5255e-02  1.0608e-02  6.1706e-03  0:04:09 1925
    76  2.4741e-02  2.7432e-03  1.4874e-02  7.7567e-01  2.4681e-02  1.0829e-02  6.1733e-03  0:03:19 1924
    77  2.4370e-02  2.8035e-03  1.4591e-02  7.8617e-01  2.4311e-02  1.1076e-02  6.1863e-03  0:02:39 1923

  iter  continuity  x-velocity  y-velocity  z-velocity      energy           k       omega     time/iter
    78  2.4114e-02  2.8591e-03  1.4490e-02  7.7396e-01  2.4061e-02  1.1293e-02  6.1541e-03  0:02:07 1922
    79  2.3945e-02  2.9077e-03  1.4513e-02  7.6241e-01  2.3899e-02  1.1507e-02  6.2192e-03  0:08:06 1921
    80  2.3767e-02  2.9316e-03  1.4594e-02  7.5206e-01  2.3728e-02  1.1848e-02  6.2571e-03  0:06:29 1920
    81  2.3479e-02  2.9441e-03  1.4663e-02  7.3664e-01  2.3446e-02  1.2163e-02  6.2363e-03  0:05:11 1919
    82  2.3194e-02  2.9409e-03  1.4740e-02  7.1910e-01  2.3168e-02  1.2474e-02  6.2132e-03  0:04:08 1918
    83  2.2800e-02  2.9292e-03  1.4775e-02  7.1675e-01  2.2778e-02  1.2803e-02  6.2094e-03  0:03:19 1917
    84  2.2300e-02  2.9023e-03  1.4738e-02  7.5721e-01  2.2280e-02  1.3091e-02  6.2045e-03  0:02:39 1916
    85  2.1689e-02  2.8591e-03  1.4669e-02  8.9624e-01  2.1670e-02  1.3423e-02  6.2200e-03  0:02:07 1915
    86  2.0991e-02  2.7986e-03  1.4539e-02  1.1499e+00  2.0972e-02  1.3816e-02  6.2297e-03  0:08:04 1914
    87  2.0222e-02  2.7196e-03  1.4405e-02  1.4995e+00  2.0202e-02  1.4194e-02  6.2076e-03  0:06:27 1913
    88  1.9357e-02  2.6273e-03  1.4285e-02  1.9545e+00  1.9336e-02  1.4523e-02  6.1695e-03  0:05:10 1912

  iter  continuity  x-velocity  y-velocity  z-velocity      energy           k       omega     time/iter
    89  1.8449e-02  2.5300e-03  1.4188e-02  2.5083e+00  1.8427e-02  1.4895e-02  6.1391e-03  0:04:08 1911
    90  1.7562e-02  2.4307e-03  1.4116e-02  3.2147e+00  1.7540e-02  1.5233e-02  6.1436e-03  0:03:18 1910
    91  1.6741e-02  2.3320e-03  1.4070e-02  3.7552e+00  1.6718e-02  1.5620e-02  6.1650e-03  0:02:38 1909
    92  1.6018e-02  2.2382e-03  1.4054e-02  4.0861e+00  1.5996e-02  1.5968e-02  6.1984e-03  0:02:07 1908
    93  1.5387e-02  2.1536e-03  1.4048e-02  4.7354e+00  1.5365e-02  1.6385e-02  6.2411e-03  0:08:03 1907
    94  1.4882e-02  2.0795e-03  1.4061e-02  7.0959e+00  1.4862e-02  1.6880e-02  6.2668e-03  0:06:26 1906
    95  1.4345e-02  2.0164e-03  1.4110e-02  9.3363e+00  1.4326e-02  1.7335e-02  6.2873e-03  0:05:09 1905
    96  1.3554e-02  1.9644e-03  1.4150e-02  1.2020e+01  1.3539e-02  1.7759e-02  6.3125e-03  0:04:07 1904
    97  1.2554e-02  1.9255e-03  1.4155e-02  1.4888e+01  1.2544e-02  1.8154e-02  6.3637e-03  0:03:17 1903
    98  1.1699e-02  1.9003e-03  1.4124e-02  1.6905e+01  1.1694e-02  1.8604e-02  6.4201e-03  0:02:38 1902
    99  1.1570e-02  1.8884e-03  1.4077e-02  2.0330e+01  1.1565e-02  1.9016e-02  6.4676e-03  0:02:06 1901

  iter  continuity  x-velocity  y-velocity  z-velocity      energy           k       omega     time/iter
   100  1.2164e-02  1.8849e-03  1.4015e-02  2.8738e+01  1.2157e-02  1.9403e-02  6.4819e-03  0:08:01 1900
   101  1.2740e-02  1.8906e-03  1.3930e-02  3.7598e+01  1.2730e-02  1.9669e-02  6.5132e-03  0:06:24 1899
   102  1.3100e-02  1.9114e-03  1.3829e-02  4.5072e+01  1.3088e-02  1.9822e-02  6.5318e-03  0:05:07 1898
   103  1.3309e-02  1.9467e-03  1.3714e-02  4.3794e+01  1.3295e-02  2.0051e-02  6.5534e-03  0:04:06 1897
   104  1.3205e-02  1.9684e-03  1.3569e-02  4.3844e+01  1.3190e-02  2.0349e-02  6.5256e-03  0:03:17 1896
   105  1.3035e-02  2.0103e-03  1.3413e-02  4.3005e+01  1.3019e-02  2.0504e-02  6.5084e-03  0:02:37 1895
   106  1.2989e-02  2.0621e-03  1.3256e-02  4.0356e+01  1.2971e-02  2.0648e-02  6.4731e-03  0:02:06 1894
   107  1.3026e-02  2.1211e-03  1.3092e-02  4.2164e+01  1.3006e-02  2.0738e-02  6.4378e-03  0:07:59 1893
   108  1.3130e-02  2.1635e-03  1.2919e-02  4.3665e+01  1.3108e-02  2.0663e-02  6.3819e-03  0:06:23 1892
   109  1.3271e-02  2.2019e-03  1.2764e-02  4.6615e+01  1.3248e-02  2.0494e-02  6.3620e-03  0:05:06 1891
   110  1.3430e-02  2.2347e-03  1.2605e-02  5.1110e+01  1.3406e-02  2.0534e-02  6.3397e-03  0:04:05 1890

  iter  continuity  x-velocity  y-velocity  z-velocity      energy           k       omega     time/iter
   111  1.3607e-02  2.2734e-03  1.2452e-02  5.3501e+01  1.3583e-02  2.0641e-02  6.3084e-03  0:03:16 1889
   112  1.3851e-02  2.3017e-03  1.2312e-02  5.4696e+01  1.3827e-02  2.0701e-02  6.2547e-03  0:02:37 1888
   113  1.4098e-02  2.3182e-03  1.2176e-02  5.7296e+01  1.4074e-02  2.0626e-02  6.1992e-03  0:02:05 1887
   114  1.4377e-02  2.3416e-03  1.2068e-02  5.8511e+01  1.4354e-02  2.0481e-02  6.1574e-03  0:07:57 1886
   115  1.4639e-02  2.3614e-03  1.1966e-02  6.2703e+01  1.4618e-02  2.0321e-02  6.0886e-03  0:06:22 1885
   116  1.4894e-02  2.3737e-03  1.1883e-02  7.0213e+01  1.4874e-02  2.0015e-02  6.0457e-03  0:05:05 1884
   117  1.5172e-02  2.3932e-03  1.1830e-02  7.8300e+01  1.5153e-02  1.9685e-02  6.0266e-03  0:04:04 1883
   118  1.5277e-02  2.4125e-03  1.1802e-02  8.2385e+01  1.5260e-02  1.9407e-02  5.9799e-03  0:03:15 1882
   119  1.5394e-02  2.4353e-03  1.1806e-02  8.4366e+01  1.5380e-02  1.9274e-02  5.9276e-03  0:02:36 1881
   120  1.5500e-02  2.4427e-03  1.1836e-02  8.2246e+01  1.5489e-02  1.9219e-02  5.8913e-03  0:02:05 1880
   121  1.5538e-02  2.4271e-03  1.1894e-02  7.3813e+01  1.5531e-02  1.9198e-02  5.8867e-03  0:07:56 1879

  iter  continuity  x-velocity  y-velocity  z-velocity      energy           k       omega     time/iter
   122  1.5527e-02  2.4276e-03  1.1971e-02  6.4068e+01  1.5524e-02  1.9183e-02  5.8766e-03  0:06:20 1878
   123  1.5464e-02  2.4329e-03  1.2067e-02  5.4901e+01  1.5465e-02  1.9163e-02  5.8192e-03  0:05:04 1877
   124  1.5398e-02  2.3995e-03  1.2175e-02  5.2623e+01  1.5404e-02  1.9185e-02  5.7923e-03  0:04:03 1876
   125  1.5323e-02  2.4119e-03  1.2290e-02  5.6467e+01  1.5334e-02  1.9224e-02  5.7790e-03  0:03:14 1875
   126  1.5288e-02  2.4062e-03  1.2413e-02  6.1107e+01  1.5304e-02  1.9290e-02  5.7576e-03  0:02:35 1874
   127  1.5259e-02  2.4113e-03  1.2547e-02  6.4490e+01  1.5281e-02  1.9360e-02  5.7570e-03  0:02:04 1873
   128  1.5282e-02  2.4236e-03  1.2676e-02  6.6089e+01  1.5308e-02  1.9386e-02  5.7605e-03  0:01:39 1872
   129  1.5328e-02  2.4462e-03  1.2785e-02  6.6068e+01  1.5360e-02  1.9404e-02  5.7562e-03  0:07:34 1871
   130  1.5344e-02  2.4826e-03  1.2868e-02  6.3835e+01  1.5381e-02  1.9412e-02  5.7746e-03  0:06:03 1870
   131  1.5392e-02  2.5307e-03  1.2923e-02  6.0768e+01  1.5433e-02  1.9427e-02  5.7868e-03  0:04:50 1869
   132  1.5492e-02  2.5919e-03  1.2943e-02  5.7848e+01  1.5539e-02  1.9316e-02  5.8067e-03  0:03:52 1868

  iter  continuity  x-velocity  y-velocity  z-velocity      energy           k       omega     time/iter
   133  1.5641e-02  2.6585e-03  1.2935e-02  5.5679e+01  1.5692e-02  1.9121e-02  5.8229e-03  0:03:05 1867
   134  1.5826e-02  2.7237e-03  1.2897e-02  5.3725e+01  1.5881e-02  1.8945e-02  5.8393e-03  0:02:28 1866
   135  1.6097e-02  2.7852e-03  1.2816e-02  5.2370e+01  1.6156e-02  1.8776e-02  5.8364e-03  0:01:59 1865
   136  1.6089e-02  2.8345e-03  1.2679e-02  5.0905e+01  1.6148e-02  1.8666e-02  5.8196e-03  0:07:48 1864
   137  1.5369e-02  2.8694e-03  1.2467e-02  4.9051e+01  1.5418e-02  1.8540e-02  5.8005e-03  0:06:14 1863
   138  1.4500e-02  2.8914e-03  1.2170e-02  4.7196e+01  1.4539e-02  1.8429e-02  5.7626e-03  0:04:59 1862
   139  1.3725e-02  2.9015e-03  1.1796e-02  4.5620e+01  1.3754e-02  1.8289e-02  5.7172e-03  0:03:59 1861
   140  1.3010e-02  2.8990e-03  1.1359e-02  4.4263e+01  1.3030e-02  1.8084e-02  5.6678e-03  0:03:11 1860
   141  1.2377e-02  2.8900e-03  1.0878e-02  4.3324e+01  1.2387e-02  1.7871e-02  5.6186e-03  0:02:33 1859
   142  1.1830e-02  2.8805e-03  1.0373e-02  4.2907e+01  1.1833e-02  1.7660e-02  5.5541e-03  0:08:14 1858
   143  1.1355e-02  2.8736e-03  9.8636e-03  4.2537e+01  1.1351e-02  1.7454e-02  5.5050e-03  0:06:35 1857

  iter  continuity  x-velocity  y-velocity  z-velocity      energy           k       omega     time/iter
   144  1.0962e-02  2.8652e-03  9.3794e-03  4.2203e+01  1.0951e-02  1.7257e-02  5.4220e-03  0:05:16 1856
   145  1.0636e-02  2.8633e-03  8.9513e-03  4.1705e+01  1.0620e-02  1.7054e-02  5.3320e-03  0:04:12 1855
   146  1.0387e-02  2.8715e-03  8.5978e-03  4.1419e+01  1.0367e-02  1.6834e-02  5.2428e-03  0:03:22 1854
   147  1.0202e-02  2.8930e-03  8.3370e-03  4.1104e+01  1.0179e-02  1.6681e-02  5.1703e-03  0:02:41 1853
   148  1.0075e-02  2.9281e-03  8.1707e-03  4.0583e+01  1.0050e-02  1.6471e-02  5.1084e-03  0:02:09 1852
   149  9.9802e-03  2.9762e-03  8.1061e-03  4.0269e+01  9.9538e-03  1.6210e-02  5.0364e-03  0:07:53 1851
   150  9.9110e-03  3.0344e-03  8.1302e-03  4.0432e+01  9.8839e-03  1.5932e-02  4.9610e-03  0:06:18 1850
   151  9.8466e-03  3.0991e-03  8.2222e-03  4.1061e+01  9.8195e-03  1.5672e-02  4.8982e-03  0:05:03 1849
   152  9.7664e-03  3.1681e-03  8.3614e-03  4.2002e+01  9.7394e-03  1.5437e-02  4.8337e-03  0:04:02 1848
   153  9.6771e-03  3.2379e-03  8.5268e-03  4.3013e+01  9.6505e-03  1.5174e-02  4.7873e-03  0:03:13 1847
   154  9.5877e-03  3.3044e-03  8.7174e-03  4.3967e+01  9.5617e-03  1.4876e-02  4.7495e-03  0:02:35 1846

  iter  continuity  x-velocity  y-velocity  z-velocity      energy           k       omega     time/iter
   155  9.5117e-03  3.3667e-03  8.9214e-03  4.4827e+01  9.4867e-03  1.4567e-02  4.7530e-03  0:02:04 1845
   156  9.4693e-03  3.4231e-03  9.1397e-03  4.5559e+01  9.4457e-03  1.4290e-02  4.7392e-03  0:07:48 1844
   157  9.4764e-03  3.4729e-03  9.3705e-03  4.6173e+01  9.4548e-03  1.4016e-02  4.7264e-03  0:06:14 1843
   158  9.5458e-03  3.5143e-03  9.6118e-03  4.6690e+01  9.5268e-03  1.3816e-02  4.7051e-03  0:04:59 1842
   159  9.6871e-03  3.5483e-03  9.8557e-03  4.7142e+01  9.6713e-03  1.3625e-02  4.6867e-03  0:03:59 1841
   160  9.9382e-03  3.5766e-03  1.0111e-02  4.7608e+01  9.9262e-03  1.3515e-02  4.6529e-03  0:03:11 1840
   161  1.0280e-02  3.5974e-03  1.0372e-02  4.8120e+01  1.0272e-02  1.3458e-02  4.6258e-03  0:02:33 1839
   162  1.0716e-02  3.6077e-03  1.0636e-02  4.8717e+01  1.0713e-02  1.3403e-02  4.6055e-03  0:02:02 1838
   163  1.1252e-02  3.6081e-03  1.0895e-02  4.9451e+01  1.1252e-02  1.3371e-02  4.5815e-03  0:07:45 1837
   164  1.1861e-02  3.5978e-03  1.1133e-02  5.0000e+01  1.1866e-02  1.3299e-02  4.5623e-03  0:06:12 1836
   165  1.2575e-02  3.5774e-03  1.1353e-02  5.0368e+01  1.2584e-02  1.3242e-02  4.5535e-03  0:04:57 1835

  iter  continuity  x-velocity  y-velocity  z-velocity      energy           k       omega     time/iter
   166  1.3341e-02  3.5489e-03  1.1547e-02  5.0531e+01  1.3353e-02  1.3236e-02  4.5407e-03  0:03:58 1834
   167  1.4129e-02  3.5129e-03  1.1711e-02  5.0545e+01  1.4143e-02  1.3196e-02  4.5310e-03  0:03:10 1833
   168  1.4888e-02  3.4625e-03  1.1840e-02  5.0302e+01  1.4905e-02  1.3168e-02  4.5148e-03  0:02:32 1832
   169  1.5501e-02  3.4044e-03  1.1928e-02  4.9741e+01  1.5520e-02  1.3086e-02  4.4945e-03  0:02:02 1831
   170  1.5904e-02  3.3357e-03  1.1964e-02  4.8964e+01  1.5925e-02  1.3026e-02  4.4832e-03  0:07:43 1830
   171  1.6043e-02  3.2572e-03  1.1943e-02  4.7988e+01  1.6063e-02  1.2992e-02  4.4709e-03  0:06:10 1829
   172  1.5994e-02  3.1766e-03  1.1865e-02  4.6848e+01  1.6014e-02  1.2944e-02  4.4588e-03  0:04:56 1828
   173  1.5832e-02  3.0938e-03  1.1744e-02  4.5602e+01  1.5851e-02  1.2869e-02  4.4491e-03  0:03:57 1827
   174  1.5620e-02  3.0109e-03  1.1591e-02  4.4318e+01  1.5638e-02  1.2795e-02  4.4456e-03  0:03:09 1826
   175  1.5419e-02  2.9268e-03  1.1419e-02  4.3071e+01  1.5436e-02  1.2740e-02  4.4325e-03  0:02:31 1825
   176  1.5217e-02  2.8392e-03  1.1230e-02  4.1966e+01  1.5232e-02  1.2640e-02  4.4387e-03  0:02:01 1824

  iter  continuity  x-velocity  y-velocity  z-velocity      energy           k       omega     time/iter
   177  1.4990e-02  2.7497e-03  1.1018e-02  4.1081e+01  1.5004e-02  1.2521e-02  4.4483e-03  0:07:41 1823
   178  1.4702e-02  2.6572e-03  1.0796e-02  4.0427e+01  1.4715e-02  1.2407e-02  4.4658e-03  0:06:09 1822
   179  1.4464e-02  2.5662e-03  1.0567e-02  3.9935e+01  1.4476e-02  1.2266e-02  4.4789e-03  0:04:55 1821
   180  1.4123e-02  2.4865e-03  1.0338e-02  3.9546e+01  1.4134e-02  1.2124e-02  4.4830e-03  0:03:56 1820
   181  1.3682e-02  2.4125e-03  1.0111e-02  3.9207e+01  1.3691e-02  1.2008e-02  4.4797e-03  0:03:09 1819
   182  1.3105e-02  2.3416e-03  9.8883e-03  3.8802e+01  1.3112e-02  1.1896e-02  4.4824e-03  0:02:31 1818
   183  1.2343e-02  2.2751e-03  9.6718e-03  3.8424e+01  1.2348e-02  1.1798e-02  4.4835e-03  0:02:01 1817
   184  1.1428e-02  2.2148e-03  9.4639e-03  3.8067e+01  1.1429e-02  1.1695e-02  4.5014e-03  0:07:40 1816
   185  1.0488e-02  2.1609e-03  9.2633e-03  3.7705e+01  1.0484e-02  1.1598e-02  4.5347e-03  0:06:07 1815
   186  9.6391e-03  2.1157e-03  9.0757e-03  3.7338e+01  9.6319e-03  1.1512e-02  4.5553e-03  0:04:54 1814
   187  8.9605e-03  2.0779e-03  8.9177e-03  3.6944e+01  8.9503e-03  1.1398e-02  4.5680e-03  0:03:55 1813

  iter  continuity  x-velocity  y-velocity  z-velocity      energy           k       omega     time/iter
   188  8.4817e-03  2.0509e-03  8.7899e-03  3.6697e+01  8.4697e-03  1.1293e-02  4.5683e-03  0:03:08 1812
   189  8.2085e-03  2.0355e-03  8.6916e-03  3.6632e+01  8.1960e-03  1.1215e-02  4.5691e-03  0:02:30 1811
   190  8.1310e-03  2.0293e-03  8.6273e-03  3.6772e+01  8.1194e-03  1.1117e-02  4.5720e-03  0:02:00 1810
   191  8.2119e-03  2.0301e-03  8.6018e-03  3.7289e+01  8.2023e-03  1.1023e-02  4.5668e-03  0:07:38 1809
   192  8.3956e-03  2.0369e-03  8.6146e-03  3.7981e+01  8.3888e-03  1.0950e-02  4.5640e-03  0:06:06 1808
   193  8.6307e-03  2.0500e-03  8.6658e-03  3.8858e+01  8.6270e-03  1.0874e-02  4.5680e-03  0:04:53 1807
   194  8.8515e-03  2.0684e-03  8.7529e-03  3.9860e+01  8.8507e-03  1.0797e-02  4.5612e-03  0:03:54 1806
   195  9.0419e-03  2.0936e-03  8.8714e-03  4.0918e+01  9.0437e-03  1.0751e-02  4.5643e-03  0:03:07 1805
   196  9.1838e-03  2.1253e-03  9.0122e-03  4.1953e+01  9.1877e-03  1.0718e-02  4.5663e-03  0:02:30 1804
   197  9.2261e-03  2.1621e-03  9.1694e-03  4.2748e+01  9.2316e-03  1.0672e-02  4.5715e-03  0:08:00 1803
   198  9.1774e-03  2.2020e-03  9.3405e-03  4.3313e+01  9.1838e-03  1.0658e-02  4.5834e-03  0:06:24 1802

  iter  continuity  x-velocity  y-velocity  z-velocity      energy           k       omega     time/iter
   199  9.0779e-03  2.2444e-03  9.5137e-03  4.3594e+01  9.0848e-03  1.0656e-02  4.5928e-03  0:05:07 1801
   200  8.9419e-03  2.2867e-03  9.6873e-03  4.3524e+01  8.9490e-03  1.0659e-02  4.6126e-03  0:04:05 1800
   201  8.7645e-03  2.3273e-03  9.8562e-03  4.3142e+01  8.7715e-03  1.0698e-02  4.6411e-03  0:03:16 1799
   202  8.5582e-03  2.3650e-03  1.0018e-02  4.2443e+01  8.5648e-03  1.0760e-02  4.6834e-03  0:02:37 1798
   203  8.3391e-03  2.3987e-03  1.0173e-02  4.1476e+01  8.3451e-03  1.0812e-02  4.7246e-03  0:02:05 1797
   204  8.1258e-03  2.4276e-03  1.0320e-02  4.0232e+01  8.1310e-03  1.0867e-02  4.7601e-03  0:07:40 1796
   205  7.9427e-03  2.4544e-03  1.0451e-02  3.8794e+01  7.9473e-03  1.0910e-02  4.7942e-03  0:06:07 1795
   206  7.8156e-03  2.4750e-03  1.0578e-02  3.7352e+01  7.8197e-03  1.0961e-02  4.8236e-03  0:04:54 1794
   207  7.7729e-03  2.4893e-03  1.0700e-02  3.6204e+01  7.7769e-03  1.0994e-02  4.8606e-03  0:03:55 1793
   208  7.8047e-03  2.4983e-03  1.0818e-02  3.5242e+01  7.8090e-03  1.1034e-02  4.8907e-03  0:03:08 1792
   209  7.8827e-03  2.5025e-03  1.0929e-02  3.4570e+01  7.8876e-03  1.1061e-02  4.9197e-03  0:02:30 1791

  iter  continuity  x-velocity  y-velocity  z-velocity      energy           k       omega     time/iter
   210  8.0136e-03  2.5038e-03  1.1038e-02  3.4498e+01  8.0192e-03  1.1101e-02  4.9502e-03  0:02:00 1790
   211  8.1968e-03  2.5024e-03  1.1143e-02  3.4710e+01  8.2034e-03  1.1151e-02  4.9735e-03  0:01:36 1789
   212  8.4416e-03  2.4988e-03  1.1246e-02  3.5116e+01  8.4495e-03  1.1229e-02  4.9917e-03  0:07:14 1788
   213  8.7286e-03  2.4930e-03  1.1344e-02  3.5676e+01  8.7378e-03  1.1333e-02  5.0173e-03  0:05:47 1787
   214  9.0428e-03  2.4861e-03  1.1441e-02  3.6164e+01  9.0534e-03  1.1409e-02  5.0311e-03  0:04:38 1786
   215  9.4030e-03  2.4784e-03  1.1538e-02  3.6733e+01  9.4150e-03  1.1479e-02  5.0468e-03  0:03:42 1785
   216  9.7882e-03  2.4711e-03  1.1634e-02  3.7373e+01  9.8014e-03  1.1592e-02  5.0626e-03  0:02:58 1784
   217  1.0207e-02  2.4642e-03  1.1726e-02  3.7928e+01  1.0222e-02  1.1641e-02  5.0565e-03  0:02:22 1783
   218  1.0658e-02  2.4586e-03  1.1814e-02  3.8648e+01  1.0673e-02  1.1679e-02  5.0503e-03  0:07:50 1782
   219  1.1100e-02  2.4551e-03  1.1895e-02  3.9686e+01  1.1116e-02  1.1697e-02  5.0526e-03  0:06:16 1781
   220  1.1488e-02  2.4538e-03  1.1968e-02  4.0592e+01  1.1505e-02  1.1706e-02  5.0570e-03  0:05:00 1780

  iter  continuity  x-velocity  y-velocity  z-velocity      energy           k       omega     time/iter
   221  1.1794e-02  2.4555e-03  1.2029e-02  4.0873e+01  1.1811e-02  1.1759e-02  5.0710e-03  0:04:00 1779
   222  1.2011e-02  2.4606e-03  1.2076e-02  4.1015e+01  1.2028e-02  1.1815e-02  5.0659e-03  0:03:12 1778
   223  1.2129e-02  2.4700e-03  1.2107e-02  4.0972e+01  1.2145e-02  1.1832e-02  5.0645e-03  0:02:34 1777
   224  1.2162e-02  2.4833e-03  1.2120e-02  4.0767e+01  1.2178e-02  1.1865e-02  5.0592e-03  0:02:03 1776
   225  1.2127e-02  2.4997e-03  1.2112e-02  4.0404e+01  1.2141e-02  1.1913e-02  5.0469e-03  0:07:33 1775
   226  1.2027e-02  2.5179e-03  1.2080e-02  3.9934e+01  1.2040e-02  1.1932e-02  5.0333e-03  0:06:02 1774
   227  1.1879e-02  2.5374e-03  1.2024e-02  3.9199e+01  1.1891e-02  1.1929e-02  5.0214e-03  0:04:50 1773
   228  1.1687e-02  2.5578e-03  1.1942e-02  3.8260e+01  1.1697e-02  1.1917e-02  5.0043e-03  0:03:52 1772
   229  1.1458e-02  2.5789e-03  1.1833e-02  3.7574e+01  1.1465e-02  1.1935e-02  4.9908e-03  0:03:05 1771
   230  1.1200e-02  2.6006e-03  1.1698e-02  3.7156e+01  1.1205e-02  1.1976e-02  4.9711e-03  0:02:28 1770
   231  1.0925e-02  2.6229e-03  1.1536e-02  3.6530e+01  1.0927e-02  1.2014e-02  4.9664e-03  0:01:58 1769

  iter  continuity  x-velocity  y-velocity  z-velocity      energy           k       omega     time/iter
   232  1.0648e-02  2.6460e-03  1.1348e-02  3.5973e+01  1.0647e-02  1.2081e-02  4.9592e-03  0:07:28 1768
   233  1.0385e-02  2.6699e-03  1.1136e-02  3.5676e+01  1.0382e-02  1.2176e-02  4.9480e-03  0:05:58 1767
   234  1.0148e-02  2.6962e-03  1.0903e-02  3.5452e+01  1.0142e-02  1.2254e-02  4.9354e-03  0:04:47 1766
   235  9.9418e-03  2.7275e-03  1.0650e-02  3.5279e+01  9.9324e-03  1.2334e-02  4.9191e-03  0:03:49 1765
   236  9.7630e-03  2.7660e-03  1.0383e-02  3.5304e+01  9.7509e-03  1.2411e-02  4.9103e-03  0:03:03 1764
   237  9.6137e-03  2.8130e-03  1.0112e-02  3.5289e+01  9.5991e-03  1.2492e-02  4.8912e-03  0:02:26 1763
   238  9.4994e-03  2.8690e-03  9.8492e-03  3.5150e+01  9.4826e-03  1.2575e-02  4.8685e-03  0:07:50 1762
   239  9.4227e-03  2.9337e-03  9.6057e-03  3.4547e+01  9.4042e-03  1.2643e-02  4.8363e-03  0:06:15 1761
   240  9.3880e-03  3.0067e-03  9.3937e-03  3.3601e+01  9.3682e-03  1.2722e-02  4.8194e-03  0:05:00 1760
   241  9.3879e-03  3.0852e-03  9.2195e-03  3.2549e+01  9.3671e-03  1.2780e-02  4.8006e-03  0:04:00 1759
   242  9.4090e-03  3.1658e-03  9.0842e-03  3.1551e+01  9.3875e-03  1.2870e-02  4.7865e-03  0:03:12 1758

  iter  continuity  x-velocity  y-velocity  z-velocity      energy           k       omega     time/iter
   243  9.4434e-03  3.2448e-03  8.9838e-03  3.0401e+01  9.4215e-03  1.2965e-02  4.7835e-03  0:02:33 1757
   244  9.4773e-03  3.3194e-03  8.9098e-03  2.9319e+01  9.4551e-03  1.3033e-02  4.7820e-03  0:02:03 1756
   245  9.4976e-03  3.3859e-03  8.8508e-03  2.8677e+01  9.4752e-03  1.3114e-02  4.7836e-03  0:07:29 1755
   246  9.4906e-03  3.4421e-03  8.7971e-03  2.8299e+01  9.4678e-03  1.3173e-02  4.7771e-03  0:05:59 1754
   247  9.4560e-03  3.4860e-03  8.7392e-03  2.7993e+01  9.4325e-03  1.3231e-02  4.7687e-03  0:04:47 1753
   248  9.3970e-03  3.5160e-03  8.6714e-03  2.7492e+01  9.3728e-03  1.3305e-02  4.7622e-03  0:03:50 1752
   249  9.3258e-03  3.5306e-03  8.5902e-03  2.7105e+01  9.3006e-03  1.3378e-02  4.7457e-03  0:03:04 1751
   250  9.2624e-03  3.5294e-03  8.4954e-03  2.6847e+01  9.2362e-03  1.3474e-02  4.7280e-03  0:02:27 1750
   251  9.2198e-03  3.5134e-03  8.3886e-03  2.6755e+01  9.1923e-03  1.3601e-02  4.7113e-03  0:07:47 1749
   252  9.2113e-03  3.4840e-03  8.2721e-03  2.6717e+01  9.1825e-03  1.3747e-02  4.6941e-03  0:06:13 1748
   253  9.2335e-03  3.4422e-03  8.1497e-03  2.6474e+01  9.2034e-03  1.3892e-02  4.6833e-03  0:04:59 1747

  iter  continuity  x-velocity  y-velocity  z-velocity      energy           k       omega     time/iter
   254  9.2748e-03  3.3903e-03  8.0236e-03  2.5847e+01  9.2435e-03  1.4049e-02  4.6671e-03  0:03:59 1746
   255  9.3014e-03  3.3300e-03  7.8957e-03  2.5266e+01  9.2692e-03  1.4202e-02  4.6662e-03  0:03:11 1745
   256  9.3088e-03  3.2632e-03  7.7657e-03  2.4603e+01  9.2760e-03  1.4278e-02  4.6445e-03  0:02:33 1744
   257  9.3145e-03  3.1879e-03  7.6363e-03  2.4307e+01  9.2813e-03  1.4427e-02  4.6328e-03  0:02:02 1743
   258  9.3303e-03  3.1006e-03  7.5076e-03  2.4539e+01  9.2968e-03  1.4587e-02  4.6030e-03  0:07:26 1742
   259  9.4015e-03  3.0119e-03  7.3787e-03  2.4576e+01  9.3678e-03  1.4719e-02  4.5724e-03  0:05:57 1741
   260  9.4905e-03  2.9279e-03  7.2496e-03  2.5227e+01  9.4567e-03  1.4801e-02  4.5432e-03  0:04:45 1740
   261  9.5498e-03  2.8463e-03  7.1229e-03  2.6150e+01  9.5161e-03  1.4778e-02  4.5144e-03  0:03:48 1739
   262  9.6120e-03  2.7653e-03  6.9976e-03  2.7624e+01  9.5784e-03  1.4701e-02  4.5008e-03  0:03:02 1738
   263  9.6324e-03  2.6853e-03  6.8706e-03  2.9247e+01  9.5990e-03  1.4602e-02  4.4870e-03  0:02:26 1737
   264  9.6481e-03  2.6052e-03  6.7507e-03  3.0414e+01  9.6151e-03  1.4503e-02  4.4657e-03  0:07:44 1736

  iter  continuity  x-velocity  y-velocity  z-velocity      energy           k       omega     time/iter
   265  9.6075e-03  2.5261e-03  6.6360e-03  3.1388e+01  9.5749e-03  1.4417e-02  4.4445e-03  0:06:11 1735
   266  9.5423e-03  2.4476e-03  6.5258e-03  3.2235e+01  9.5103e-03  1.4374e-02  4.4146e-03  0:04:56 1734
   267  9.4172e-03  2.3572e-03  6.4208e-03  3.2863e+01  9.3858e-03  1.4350e-02  4.3920e-03  0:03:57 1733
   268  9.2543e-03  2.2549e-03  6.3207e-03  3.3594e+01  9.2235e-03  1.4340e-02  4.3647e-03  0:03:09 1732
   269  9.0392e-03  2.1499e-03  6.2251e-03  3.4398e+01  9.0091e-03  1.4368e-02  4.3363e-03  0:02:32 1731
   270  8.7851e-03  2.0390e-03  6.1322e-03  3.5267e+01  8.7558e-03  1.4395e-02  4.3229e-03  0:02:01 1730
   271  8.4923e-03  1.9469e-03  6.0421e-03  3.6497e+01  8.4640e-03  1.4368e-02  4.2992e-03  0:07:23 1729
   272  8.1805e-03  1.8648e-03  5.9483e-03  3.8003e+01  8.1532e-03  1.4289e-02  4.2809e-03  0:05:54 1728
   273  7.8451e-03  1.7843e-03  5.8507e-03  3.9744e+01  7.8189e-03  1.4222e-02  4.2598e-03  0:04:43 1727
   274  7.5212e-03  1.7102e-03  5.7519e-03  4.1729e+01  7.4961e-03  1.4109e-02  4.2306e-03  0:03:46 1726
   275  7.1943e-03  1.6486e-03  5.6436e-03  4.3912e+01  7.1701e-03  1.3978e-02  4.1918e-03  0:03:01 1725

  iter  continuity  x-velocity  y-velocity  z-velocity      energy           k       omega     time/iter
   276  6.8793e-03  1.5977e-03  5.5328e-03  4.6498e+01  6.8560e-03  1.3877e-02  4.1535e-03  0:02:25 1724
   277  6.5663e-03  1.5558e-03  5.4193e-03  4.9281e+01  6.5440e-03  1.3826e-02  4.1286e-03  0:01:56 1723
   278  6.2747e-03  1.5197e-03  5.2957e-03  5.1803e+01  6.2532e-03  1.3782e-02  4.0981e-03  0:07:17 1722
   279  5.9908e-03  1.4892e-03  5.1709e-03  5.4142e+01  5.9699e-03  1.3760e-02  4.0653e-03  0:05:49 1721
   280  5.7370e-03  1.4640e-03  5.0484e-03  5.5962e+01  5.7168e-03  1.3660e-02  4.0364e-03  0:04:39 1720
   281  5.4855e-03  1.4436e-03  4.9314e-03  5.7242e+01  5.4660e-03  1.3544e-02  4.0048e-03  0:03:43 1719
   282  5.2648e-03  1.4282e-03  4.8218e-03  5.7990e+01  5.2459e-03  1.3439e-02  3.9656e-03  0:02:59 1718
   283  5.0866e-03  1.4182e-03  4.7211e-03  5.8340e+01  5.0680e-03  1.3383e-02  3.9175e-03  0:02:23 1717
   284  4.9562e-03  1.4135e-03  4.6302e-03  5.8165e+01  4.9379e-03  1.3293e-02  3.8775e-03  0:01:54 1716
   285  4.8668e-03  1.4136e-03  4.5487e-03  5.7427e+01  4.8487e-03  1.3164e-02  3.8431e-03  0:07:14 1715
   286  4.8062e-03  1.4179e-03  4.4755e-03  5.6194e+01  4.7882e-03  1.3040e-02  3.8151e-03  0:05:47 1714

  iter  continuity  x-velocity  y-velocity  z-velocity      energy           k       omega     time/iter
   287  4.7872e-03  1.4255e-03  4.4099e-03  5.4637e+01  4.7692e-03  1.2802e-02  3.7738e-03  0:04:38 1713
   288  4.8658e-03  1.4361e-03  4.3497e-03  5.2840e+01  4.8474e-03  1.2664e-02  3.7374e-03  0:03:42 1712
   289  4.9588e-03  1.4495e-03  4.2936e-03  5.0829e+01  4.9400e-03  1.2575e-02  3.6958e-03  0:02:57 1711
   290  4.9580e-03  1.4653e-03  4.2425e-03  4.8770e+01  4.9389e-03  1.2504e-02  3.6624e-03  0:02:22 1710
   291  4.9427e-03  1.4833e-03  4.1953e-03  4.6790e+01  4.9234e-03  1.2381e-02  3.6255e-03  0:01:53 1709
   292  4.9322e-03  1.5031e-03  4.1532e-03  4.4923e+01  4.9125e-03  1.2269e-02  3.5915e-03  0:01:31 1708
   293  4.9309e-03  1.5244e-03  4.1173e-03  4.3132e+01  4.9108e-03  1.2171e-02  3.5458e-03  0:06:54 1707
   294  4.9348e-03  1.5466e-03  4.0870e-03  4.1390e+01  4.9141e-03  1.2028e-02  3.5130e-03  0:05:31 1706
   295  4.9370e-03  1.5697e-03  4.0642e-03  3.9922e+01  4.9158e-03  1.1862e-02  3.4792e-03  0:04:25 1705
   296  4.9382e-03  1.5963e-03  4.0495e-03  3.8862e+01  4.9165e-03  1.1731e-02  3.4394e-03  0:03:32 1704
   297  4.9423e-03  1.6257e-03  4.0444e-03  3.8071e+01  4.9202e-03  1.1609e-02  3.4010e-03  0:02:49 1703

  iter  continuity  x-velocity  y-velocity  z-velocity      energy           k       omega     time/iter
   298  4.9478e-03  1.6546e-03  4.0480e-03  3.7662e+01  4.9253e-03  1.1549e-02  3.3704e-03  0:02:15 1702
   299  4.9558e-03  1.6835e-03  4.0602e-03  3.7585e+01  4.9331e-03  1.1489e-02  3.3249e-03  0:07:28 1701
   300  4.9636e-03  1.7130e-03  4.0785e-03  3.7853e+01  4.9407e-03  1.1402e-02  3.2819e-03  0:05:58 1700
   301  4.9662e-03  1.7465e-03  4.1040e-03  3.8583e+01  4.9432e-03  1.1305e-02  3.2433e-03  0:04:47 1699
   302  4.9650e-03  1.7782e-03  4.1360e-03  3.9291e+01  4.9423e-03  1.1278e-02  3.2193e-03  0:03:49 1698
   303  4.9661e-03  1.8062e-03  4.1758e-03  3.9923e+01  4.9436e-03  1.1309e-02  3.2046e-03  0:03:03 1697
   304  4.9764e-03  1.8317e-03  4.2232e-03  4.0600e+01  4.9544e-03  1.1340e-02  3.1923e-03  0:02:26 1696
   305  5.0056e-03  1.8563e-03  4.2786e-03  4.1175e+01  4.9843e-03  1.1376e-02  3.1812e-03  0:01:57 1695
   306  5.0566e-03  1.8804e-03  4.3410e-03  4.1941e+01  5.0360e-03  1.1412e-02  3.1621e-03  0:07:12 1694
   307  5.1287e-03  1.9051e-03  4.4119e-03  4.3014e+01  5.1090e-03  1.1428e-02  3.1560e-03  0:05:46 1693
   308  5.2239e-03  1.9276e-03  4.4910e-03  4.4040e+01  5.2051e-03  1.1430e-02  3.1421e-03  0:04:36 1692

  iter  continuity  x-velocity  y-velocity  z-velocity      energy           k       omega     time/iter
   309  5.3386e-03  1.9466e-03  4.5769e-03  4.5382e+01  5.3208e-03  1.1429e-02  3.1288e-03  0:03:41 1691
   310  5.4719e-03  1.9644e-03  4.6702e-03  4.6763e+01  5.4550e-03  1.1387e-02  3.1136e-03  0:02:57 1690
   311  5.6339e-03  1.9809e-03  4.7709e-03  4.8373e+01  5.6179e-03  1.1342e-02  3.1132e-03  0:02:21 1689
   312  5.7919e-03  1.9912e-03  4.8762e-03  4.9521e+01  5.7767e-03  1.1325e-02  3.1156e-03  0:01:53 1688
   313  5.9357e-03  1.9975e-03  4.9854e-03  5.0208e+01  5.9214e-03  1.1257e-02  3.1147e-03  0:07:08 1687
   314  6.0629e-03  2.0013e-03  5.0976e-03  5.0131e+01  6.0495e-03  1.1248e-02  3.1236e-03  0:05:42 1686
   315  6.1749e-03  2.0027e-03  5.2103e-03  5.0423e+01  6.1622e-03  1.1212e-02  3.1449e-03  0:04:33 1685
   316  6.2747e-03  2.0020e-03  5.3223e-03  5.1072e+01  6.2628e-03  1.1141e-02  3.1714e-03  0:03:39 1684
   317  6.3623e-03  1.9990e-03  5.4363e-03  5.0385e+01  6.3511e-03  1.1141e-02  3.1950e-03  0:02:55 1683
   318  6.4319e-03  1.9945e-03  5.5526e-03  4.9204e+01  6.4213e-03  1.1149e-02  3.2114e-03  0:02:20 1682
   319  6.4881e-03  1.9882e-03  5.6683e-03  4.8127e+01  6.4780e-03  1.1120e-02  3.2247e-03  0:01:52 1681

  iter  continuity  x-velocity  y-velocity  z-velocity      energy           k       omega     time/iter
   320  6.5295e-03  1.9791e-03  5.7805e-03  4.6895e+01  6.5199e-03  1.1177e-02  3.2417e-03  0:07:05 1680
   321  6.5561e-03  1.9690e-03  5.8940e-03  4.5477e+01  6.5469e-03  1.1190e-02  3.2453e-03  0:05:40 1679
   322  6.5713e-03  1.9590e-03  6.0095e-03  4.3855e+01  6.5625e-03  1.1180e-02  3.2568e-03  0:04:32 1678
   323  6.5752e-03  1.9484e-03  6.1208e-03  4.2242e+01  6.5668e-03  1.1101e-02  3.2576e-03  0:03:37 1677
   324  6.5636e-03  1.9379e-03  6.2275e-03  4.0549e+01  6.5556e-03  1.1020e-02  3.2601e-03  0:02:54 1676
   325  6.5319e-03  1.9284e-03  6.3331e-03  3.8966e+01  6.5242e-03  1.0890e-02  3.2610e-03  0:02:19 1675
   326  6.4790e-03  1.9203e-03  6.4367e-03  3.7215e+01  6.4717e-03  1.0762e-02  3.2674e-03  0:01:51 1674
   327  6.4064e-03  1.9138e-03  6.5350e-03  3.6537e+01  6.3993e-03  1.0684e-02  3.2737e-03  0:07:03 1673
   328  6.3203e-03  1.9095e-03  6.6298e-03  3.6130e+01  6.3134e-03  1.0655e-02  3.2737e-03  0:05:39 1672
   329  6.2222e-03  1.9078e-03  6.7226e-03  3.6190e+01  6.2155e-03  1.0562e-02  3.2723e-03  0:04:31 1671
   330  6.1149e-03  1.9088e-03  6.8095e-03  3.6515e+01  6.1084e-03  1.0458e-02  3.2616e-03  0:03:36 1670

  iter  continuity  x-velocity  y-velocity  z-velocity      energy           k       omega     time/iter
   331  6.0003e-03  1.9124e-03  6.8907e-03  3.7075e+01  5.9939e-03  1.0431e-02  3.2522e-03  0:02:53 1669
   332  5.8763e-03  1.9200e-03  6.9682e-03  3.8055e+01  5.8700e-03  1.0400e-02  3.2568e-03  0:02:18 1668
   333  5.7473e-03  1.9307e-03  7.0400e-03  3.9317e+01  5.7412e-03  1.0305e-02  3.2599e-03  0:01:51 1667
   334  5.6144e-03  1.9437e-03  7.1053e-03  4.0791e+01  5.6083e-03  1.0205e-02  3.2565e-03  0:07:02 1666
   335  5.4793e-03  1.9589e-03  7.1651e-03  4.2213e+01  5.4733e-03  1.0092e-02  3.2583e-03  0:05:37 1665
   336  5.3447e-03  1.9763e-03  7.2184e-03  4.3590e+01  5.3387e-03  9.9903e-03  3.2634e-03  0:04:30 1664
   337  5.2077e-03  1.9954e-03  7.2651e-03  4.4674e+01  5.2018e-03  9.8797e-03  3.2668e-03  0:03:35 1663
   338  5.0710e-03  2.0162e-03  7.3052e-03  4.5778e+01  5.0650e-03  9.7766e-03  3.2703e-03  0:02:52 1662
   339  4.9376e-03  2.0384e-03  7.3410e-03  4.6898e+01  4.9317e-03  9.7059e-03  3.2696e-03  0:02:18 1661
   340  4.8107e-03  2.0609e-03  7.3722e-03  4.7778e+01  4.8048e-03  9.6160e-03  3.2787e-03  0:01:50 1660
   341  4.6934e-03  2.0835e-03  7.4001e-03  4.8373e+01  4.6874e-03  9.5929e-03  3.2903e-03  0:07:00 1659

  iter  continuity  x-velocity  y-velocity  z-velocity      energy           k       omega     time/iter
   342  4.5851e-03  2.1074e-03  7.4248e-03  4.8595e+01  4.5790e-03  9.6190e-03  3.3013e-03  0:05:36 1658
   343  4.4865e-03  2.1323e-03  7.4466e-03  4.8111e+01  4.4803e-03  9.6234e-03  3.3096e-03  0:04:28 1657
   344  4.4016e-03  2.1565e-03  7.4664e-03  4.7505e+01  4.3953e-03  9.7111e-03  3.3191e-03  0:03:35 1656
   345  4.3325e-03  2.1791e-03  7.4832e-03  4.6836e+01  4.3260e-03  9.7516e-03  3.3256e-03  0:02:52 1655
   346  4.2814e-03  2.2007e-03  7.4989e-03  4.6072e+01  4.2747e-03  9.7734e-03  3.3200e-03  0:02:17 1654
   347  4.2526e-03  2.2211e-03  7.5139e-03  4.5158e+01  4.2456e-03  9.8259e-03  3.3133e-03  0:07:20 1653
   348  4.2456e-03  2.2406e-03  7.5303e-03  4.4248e+01  4.2383e-03  9.8459e-03  3.3007e-03  0:05:52 1652
   349  4.2562e-03  2.2586e-03  7.5459e-03  4.3340e+01  4.2486e-03  9.8668e-03  3.2799e-03  0:04:41 1651
   350  4.2900e-03  2.2746e-03  7.5628e-03  4.2844e+01  4.2819e-03  9.8950e-03  3.2614e-03  0:03:45 1650
   351  4.3432e-03  2.2886e-03  7.5795e-03  4.2199e+01  4.3346e-03  9.8951e-03  3.2430e-03  0:03:00 1649
   352  4.4049e-03  2.2992e-03  7.5962e-03  4.1288e+01  4.3956e-03  9.9159e-03  3.2344e-03  0:02:24 1648

  iter  continuity  x-velocity  y-velocity  z-velocity      energy           k       omega     time/iter
   353  4.4891e-03  2.3072e-03  7.6118e-03  3.9965e+01  4.4794e-03  9.9220e-03  3.2258e-03  0:01:55 1647
   354  4.5924e-03  2.3126e-03  7.6267e-03  3.9106e+01  4.5821e-03  9.8639e-03  3.2189e-03  0:07:01 1646
   355  4.7113e-03  2.3151e-03  7.6397e-03  3.8018e+01  4.7003e-03  9.7881e-03  3.2216e-03  0:05:37 1645
   356  4.8288e-03  2.3139e-03  7.6505e-03  3.6648e+01  4.8170e-03  9.6995e-03  3.2195e-03  0:04:29 1644
   357  4.9654e-03  2.3084e-03  7.6594e-03  3.6044e+01  4.9529e-03  9.6238e-03  3.2086e-03  0:03:35 1643
   358  5.1285e-03  2.2982e-03  7.6662e-03  3.5578e+01  5.1152e-03  9.5397e-03  3.1981e-03  0:02:52 1642
   359  5.3159e-03  2.2836e-03  7.6719e-03  3.5170e+01  5.3020e-03  9.4843e-03  3.1910e-03  0:02:18 1641
   360  5.5168e-03  2.2648e-03  7.6747e-03  3.5482e+01  5.5022e-03  9.4073e-03  3.1780e-03  0:01:50 1640
   361  5.7404e-03  2.2416e-03  7.6701e-03  3.5817e+01  5.7250e-03  9.3403e-03  3.1668e-03  0:06:56 1639
   362  5.9990e-03  2.2146e-03  7.6626e-03  3.5965e+01  5.9830e-03  9.2589e-03  3.1559e-03  0:05:32 1638
   363  6.2438e-03  2.1847e-03  7.6513e-03  3.7131e+01  6.2273e-03  9.2184e-03  3.1425e-03  0:04:26 1637

  iter  continuity  x-velocity  y-velocity  z-velocity      energy           k       omega     time/iter
   364  6.4503e-03  2.1522e-03  7.6344e-03  3.7932e+01  6.4331e-03  9.1230e-03  3.1437e-03  0:03:32 1636
   365  6.6811e-03  2.1172e-03  7.6147e-03  3.9384e+01  6.6633e-03  8.9816e-03  3.1444e-03  0:02:50 1635
   366  6.9380e-03  2.0808e-03  7.5881e-03  4.0939e+01  6.9198e-03  8.8985e-03  3.1354e-03  0:02:16 1634
   367  7.2167e-03  2.0443e-03  7.5562e-03  4.1925e+01  7.1980e-03  8.7792e-03  3.1277e-03  0:01:49 1633
   368  7.4863e-03  2.0095e-03  7.5266e-03  4.3186e+01  7.4671e-03  8.6823e-03  3.1139e-03  0:06:53 1632
   369  7.7018e-03  1.9784e-03  7.5016e-03  4.4575e+01  7.6823e-03  8.5548e-03  3.1010e-03  0:05:30 1631
   370  7.9163e-03  1.9530e-03  7.4857e-03  4.6291e+01  7.8965e-03  8.4124e-03  3.0766e-03  0:04:24 1630
   371  8.1522e-03  1.9341e-03  7.4787e-03  4.8443e+01  8.1323e-03  8.2854e-03  3.0497e-03  0:03:31 1629
   372  8.4189e-03  1.9229e-03  7.4828e-03  4.8789e+01  8.3989e-03  8.1291e-03  3.0266e-03  0:02:49 1628
   373  8.6043e-03  1.9198e-03  7.5077e-03  4.9201e+01  8.5842e-03  7.9773e-03  3.0033e-03  0:02:15 1627
   374  8.7467e-03  1.9244e-03  7.5516e-03  5.0017e+01  8.7268e-03  7.8495e-03  2.9881e-03  0:01:48 1626

  iter  continuity  x-velocity  y-velocity  z-velocity      energy           k       omega     time/iter
   375  8.8509e-03  1.9375e-03  7.6112e-03  5.1347e+01  8.8313e-03  7.6489e-03  2.9681e-03  0:06:51 1625
   376  8.9124e-03  1.9588e-03  7.6887e-03  5.1616e+01  8.8933e-03  7.4416e-03  2.9644e-03  0:05:29 1624
   377  8.9235e-03  1.9873e-03  7.7783e-03  5.2271e+01  8.9049e-03  7.3070e-03  2.9632e-03  0:04:23 1623
   378  8.9068e-03  2.0224e-03  7.8736e-03  5.2359e+01  8.8890e-03  7.2116e-03  2.9600e-03  0:03:30 1622
   379  8.8575e-03  2.0627e-03  7.9677e-03  5.2581e+01  8.8406e-03  7.1435e-03  2.9555e-03  0:02:48 1621
   380  8.7814e-03  2.1067e-03  8.0571e-03  5.3597e+01  8.7655e-03  7.0992e-03  2.9586e-03  0:02:14 1620
   381  8.6991e-03  2.1537e-03  8.1374e-03  5.5329e+01  8.6843e-03  7.0670e-03  2.9680e-03  0:01:47 1619
   382  8.6199e-03  2.2009e-03  8.2043e-03  5.6776e+01  8.6063e-03  7.0808e-03  2.9779e-03  0:06:49 1618
   383  8.5467e-03  2.2486e-03  8.2578e-03  5.8936e+01  8.5346e-03  7.1064e-03  2.9836e-03  0:05:27 1617
   384  8.4556e-03  2.2943e-03  8.2950e-03  6.1029e+01  8.4448e-03  7.1454e-03  2.9897e-03  0:04:22 1616
   385  8.3611e-03  2.3403e-03  8.3175e-03  6.3686e+01  8.3517e-03  7.2292e-03  2.9971e-03  0:03:29 1615

  iter  continuity  x-velocity  y-velocity  z-velocity      energy           k       omega     time/iter
   386  8.2699e-03  2.3855e-03  8.3269e-03  6.6236e+01  8.2619e-03  7.3053e-03  3.0038e-03  0:02:47 1614
   387  8.1991e-03  2.4295e-03  8.3246e-03  6.8631e+01  8.1925e-03  7.3954e-03  3.0143e-03  0:02:14 1613
   388  8.1710e-03  2.4717e-03  8.3128e-03  7.1490e+01  8.1657e-03  7.4725e-03  3.0194e-03  0:01:47 1612
   389  8.2191e-03  2.5118e-03  8.2949e-03  7.4546e+01  8.2149e-03  7.5279e-03  3.0311e-03  0:06:48 1611
   390  8.3054e-03  2.5498e-03  8.2699e-03  7.7043e+01  8.3021e-03  7.6052e-03  3.0444e-03  0:05:26 1610
   391  8.3829e-03  2.5863e-03  8.2384e-03  7.9926e+01  8.3802e-03  7.6423e-03  3.0479e-03  0:04:21 1609
   392  8.5043e-03  2.6196e-03  8.2032e-03  8.1941e+01  8.5017e-03  7.6444e-03  3.0521e-03  0:03:28 1608
   393  8.6903e-03  2.6494e-03  8.1708e-03  8.3072e+01  8.6877e-03  7.6052e-03  3.0615e-03  0:02:47 1607
   394  8.9227e-03  2.6746e-03  8.1424e-03  8.4727e+01  8.9200e-03  7.5479e-03  3.0730e-03  0:02:13 1606
   395  9.1712e-03  2.6951e-03  8.1210e-03  8.5162e+01  9.1681e-03  7.5006e-03  3.0855e-03  0:01:46 1605
   396  9.3935e-03  2.7115e-03  8.1079e-03  8.6018e+01  9.3899e-03  7.4393e-03  3.0938e-03  0:06:46 1604

  iter  continuity  x-velocity  y-velocity  z-velocity      energy           k       omega     time/iter
   397  9.5970e-03  2.7232e-03  8.1052e-03  8.7252e+01  9.5929e-03  7.3819e-03  3.0965e-03  0:05:25 1603
   398  9.8588e-03  2.7299e-03  8.1131e-03  8.7608e+01  9.8543e-03  7.3603e-03  3.1070e-03  0:04:19 1602
   399  1.0161e-02  2.7305e-03  8.1280e-03  8.8977e+01  1.0156e-02  7.3529e-03  3.1155e-03  0:03:27 1601
   400  1.0435e-02  2.7243e-03  8.1422e-03  9.1380e+01  1.0430e-02  7.3568e-03  3.1219e-03  0:02:46 1600
   401  1.0629e-02  2.7126e-03  8.1554e-03  9.3630e+01  1.0624e-02  7.3446e-03  3.1191e-03  0:02:13 1599
   402  1.0820e-02  2.6950e-03  8.1670e-03  9.6583e+01  1.0815e-02  7.3239e-03  3.1213e-03  0:01:46 1598
   403  1.0936e-02  2.6711e-03  8.1757e-03  9.7780e+01  1.0931e-02  7.3179e-03  3.1168e-03  0:06:44 1597
   404  1.1024e-02  2.6425e-03  8.1788e-03  9.8858e+01  1.1020e-02  7.3191e-03  3.1022e-03  0:05:23 1596
   405  1.1090e-02  2.6114e-03  8.1744e-03  9.9162e+01  1.1086e-02  7.3498e-03  3.0944e-03  0:04:18 1595
   406  1.1105e-02  2.5800e-03  8.1668e-03  9.9244e+01  1.1101e-02  7.4006e-03  3.0772e-03  0:03:27 1594
   407  1.1069e-02  2.5504e-03  8.1549e-03  9.8286e+01  1.1066e-02  7.4098e-03  3.0580e-03  0:02:45 1593

  iter  continuity  x-velocity  y-velocity  z-velocity      energy           k       omega     time/iter
   408  1.0988e-02  2.5259e-03  8.1423e-03  9.5703e+01  1.0985e-02  7.4462e-03  3.0400e-03  0:02:12 1592
   409  1.0891e-02  2.5083e-03  8.1263e-03  9.3398e+01  1.0887e-02  7.4507e-03  3.0189e-03  0:01:46 1591
   410  1.0758e-02  2.4988e-03  8.1131e-03  9.0644e+01  1.0754e-02  7.4401e-03  2.9962e-03  0:06:42 1590
   411  1.0577e-02  2.4972e-03  8.1001e-03  8.9280e+01  1.0572e-02  7.4653e-03  2.9774e-03  0:05:22 1589
   412  1.0355e-02  2.5048e-03  8.0825e-03  8.8357e+01  1.0349e-02  7.4608e-03  2.9551e-03  0:04:17 1588
   413  1.0088e-02  2.5217e-03  8.0648e-03  8.6800e+01  1.0080e-02  7.4639e-03  2.9390e-03  0:03:26 1587
   414  9.8015e-03  2.5489e-03  8.0562e-03  8.5328e+01  9.7921e-03  7.4708e-03  2.9243e-03  0:02:44 1586
   415  9.5147e-03  2.5834e-03  8.0523e-03  8.3206e+01  9.5031e-03  7.4620e-03  2.9041e-03  0:02:11 1585
   416  9.2416e-03  2.6253e-03  8.0509e-03  8.1584e+01  9.2276e-03  7.4697e-03  2.8914e-03  0:01:45 1584
   417  8.9941e-03  2.6736e-03  8.0589e-03  7.9487e+01  8.9777e-03  7.4651e-03  2.8810e-03  0:06:41 1583
   418  8.7790e-03  2.7270e-03  8.0757e-03  7.6586e+01  8.7603e-03  7.4536e-03  2.8720e-03  0:05:20 1582

  iter  continuity  x-velocity  y-velocity  z-velocity      energy           k       omega     time/iter
   419  8.5937e-03  2.7832e-03  8.1013e-03  7.3682e+01  8.5729e-03  7.4265e-03  2.8639e-03  0:04:16 1581
   420  8.4322e-03  2.8410e-03  8.1358e-03  7.1308e+01  8.4096e-03  7.3956e-03  2.8669e-03  0:03:25 1580
   421  8.2828e-03  2.8983e-03  8.1758e-03  7.0170e+01  8.2588e-03  7.3591e-03  2.8698e-03  0:02:44 1579
   422  8.1453e-03  2.9529e-03  8.2213e-03  7.0244e+01  8.1203e-03  7.3227e-03  2.8745e-03  0:07:26 1578
   423  8.0086e-03  3.0027e-03  8.2727e-03  7.0210e+01  7.9829e-03  7.2726e-03  2.8767e-03  0:05:57 1577
   424  7.8734e-03  3.0462e-03  8.3278e-03  6.9854e+01  7.8475e-03  7.2390e-03  2.8771e-03  0:04:45 1576
   425  7.7370e-03  3.0824e-03  8.3832e-03  6.9404e+01  7.7112e-03  7.2099e-03  2.8782e-03  0:03:48 1575
   426  7.5948e-03  3.1100e-03  8.4357e-03  6.9460e+01  7.5695e-03  7.1821e-03  2.8716e-03  0:08:17 1574
   427  7.4500e-03  3.1284e-03  8.4835e-03  7.0172e+01  7.4254e-03  7.1504e-03  2.8632e-03  0:06:38 1573
   428  7.2987e-03  3.1370e-03  8.5246e-03  7.1272e+01  7.2749e-03  7.1225e-03  2.8556e-03  0:05:18 1572
   429  7.1397e-03  3.1352e-03  8.5572e-03  7.2616e+01  7.1169e-03  7.0909e-03  2.8415e-03  0:04:14 1571

  iter  continuity  x-velocity  y-velocity  z-velocity      energy           k       omega     time/iter
   430  6.9775e-03  3.1229e-03  8.5805e-03  7.4174e+01  6.9556e-03  7.0555e-03  2.8268e-03  0:08:37 1570
   431  6.8214e-03  3.1006e-03  8.5939e-03  7.5896e+01  6.8003e-03  7.0261e-03  2.8113e-03  0:06:53 1569
   432  6.6809e-03  3.0690e-03  8.5971e-03  7.7570e+01  6.6607e-03  7.0058e-03  2.7945e-03  0:05:31 1568
   433  6.5679e-03  3.0301e-03  8.5906e-03  7.9347e+01  6.5483e-03  6.9842e-03  2.7803e-03  0:04:24 1567
   434  6.4953e-03  2.9838e-03  8.5753e-03  8.1236e+01  6.4764e-03  6.9594e-03  2.7688e-03  0:08:44 1566
   435  6.4818e-03  2.9319e-03  8.5543e-03  8.3069e+01  6.4638e-03  6.9354e-03  2.7576e-03  0:06:59 1565
   436  6.5638e-03  2.8768e-03  8.5278e-03  8.4679e+01  6.5468e-03  6.9141e-03  2.7407e-03  0:05:35 1564
   437  6.7043e-03  2.8207e-03  8.4985e-03  8.5947e+01  6.6883e-03  6.8987e-03  2.7283e-03  0:04:28 1563
   438  6.8987e-03  2.7655e-03  8.4713e-03  8.6855e+01  6.8837e-03  6.9057e-03  2.7190e-03  0:08:47 1562
   439  7.1413e-03  2.7121e-03  8.4487e-03  8.7427e+01  7.1273e-03  6.9251e-03  2.7160e-03  0:07:01 1561
   440  7.4103e-03  2.6612e-03  8.4336e-03  8.7661e+01  7.3972e-03  6.9508e-03  2.7120e-03  0:05:37 1560

  iter  continuity  x-velocity  y-velocity  z-velocity      energy           k       omega     time/iter
   441  7.6945e-03  2.6135e-03  8.4278e-03  8.7604e+01  7.6824e-03  6.9783e-03  2.7115e-03  0:09:41 1559
   442  8.0070e-03  2.5694e-03  8.4338e-03  8.7220e+01  7.9960e-03  7.0102e-03  2.7082e-03  0:07:44 1558
   443  8.3284e-03  2.5296e-03  8.4526e-03  8.6754e+01  8.3185e-03  7.0462e-03  2.7026e-03  0:06:11 1557
   444  8.6460e-03  2.4952e-03  8.4836e-03  8.6195e+01  8.6373e-03  7.0901e-03  2.6964e-03  0:04:57 1556
   445  8.9517e-03  2.4655e-03  8.5256e-03  8.5547e+01  8.9440e-03  7.1351e-03  2.6863e-03  0:09:08 1555
   446  9.2382e-03  2.4400e-03  8.5761e-03  8.4898e+01  9.2316e-03  7.1849e-03  2.6818e-03  0:07:18 1554
   447  9.5002e-03  2.4180e-03  8.6322e-03  8.4425e+01  9.4946e-03  7.2409e-03  2.6789e-03  0:05:50 1553
   448  9.7311e-03  2.3991e-03  8.6905e-03  8.4271e+01  9.7264e-03  7.2997e-03  2.6660e-03  0:09:51 1552
   449  9.8912e-03  2.3833e-03  8.7482e-03  8.4227e+01  9.8873e-03  7.3664e-03  2.6515e-03  0:07:52 1551
   450  9.9393e-03  2.3700e-03  8.8011e-03  8.4562e+01  9.9356e-03  7.4353e-03  2.6358e-03  0:06:18 1550
   451  9.9054e-03  2.3598e-03  8.8466e-03  8.5367e+01  9.9017e-03  7.5003e-03  2.6274e-03  0:05:02 1549

  iter  continuity  x-velocity  y-velocity  z-velocity      energy           k       omega     time/iter
   452  9.8130e-03  2.3522e-03  8.8828e-03  8.6355e+01  9.8091e-03  7.5549e-03  2.6197e-03  0:09:11 1548
   453  9.7070e-03  2.3471e-03  8.9099e-03  8.7257e+01  9.7027e-03  7.6084e-03  2.6120e-03  0:07:20 1547
   454  9.5744e-03  2.3451e-03  8.9279e-03  8.8565e+01  9.5696e-03  7.6561e-03  2.6020e-03  0:05:52 1546
   455  9.4201e-03  2.3466e-03  8.9366e-03  9.0104e+01  9.4147e-03  7.6935e-03  2.5919e-03  0:04:42 1545
   456  9.2235e-03  2.3520e-03  8.9380e-03  9.1669e+01  9.2172e-03  7.7290e-03  2.5829e-03  0:08:54 1544
   457  8.9811e-03  2.3614e-03  8.9326e-03  9.2937e+01  8.9736e-03  7.7791e-03  2.5712e-03  0:07:07 1543
   458  8.7083e-03  2.3746e-03  8.9225e-03  9.3835e+01  8.6995e-03  7.8371e-03  2.5613e-03  0:05:41 1542
   459  8.4147e-03  2.3910e-03  8.9102e-03  9.4292e+01  8.4044e-03  7.8925e-03  2.5542e-03  0:04:33 1541
   460  8.1138e-03  2.4120e-03  8.8977e-03  9.4463e+01  8.1020e-03  7.9365e-03  2.5477e-03  0:08:46 1540
   461  7.8157e-03  2.4365e-03  8.8884e-03  9.4154e+01  7.8023e-03  7.9805e-03  2.5436e-03  0:07:01 1539
   462  7.5250e-03  2.4642e-03  8.8858e-03  9.3330e+01  7.5102e-03  8.0280e-03  2.5391e-03  0:05:36 1538

  iter  continuity  x-velocity  y-velocity  z-velocity      energy           k       omega     time/iter
   463  7.2458e-03  2.4943e-03  8.8905e-03  9.2111e+01  7.2297e-03  8.0745e-03  2.5370e-03  0:04:29 1537
   464  6.9821e-03  2.5256e-03  8.9024e-03  9.0507e+01  6.9648e-03  8.1105e-03  2.5363e-03  0:08:42 1536
   465  6.7383e-03  2.5561e-03  8.9229e-03  8.8365e+01  6.7199e-03  8.1484e-03  2.5373e-03  0:06:57 1535
   466  6.5157e-03  2.5850e-03  8.9527e-03  8.6221e+01  6.4966e-03  8.1845e-03  2.5362e-03  0:05:34 1534
   467  6.3123e-03  2.6103e-03  8.9908e-03  8.3991e+01  6.2929e-03  8.2258e-03  2.5323e-03  0:04:27 1533
   468  6.1299e-03  2.6316e-03  9.0380e-03  8.1829e+01  6.1104e-03  8.2506e-03  2.5312e-03  0:08:40 1532
   469  5.9699e-03  2.6490e-03  9.0931e-03  7.9800e+01  5.9505e-03  8.2779e-03  2.5363e-03  0:06:55 1531
   470  5.8326e-03  2.6634e-03  9.1533e-03  7.8237e+01  5.8137e-03  8.3053e-03  2.5443e-03  0:05:32 1530
   471  5.7137e-03  2.6730e-03  9.2173e-03  7.6673e+01  5.6954e-03  8.3248e-03  2.5465e-03  0:04:26 1529
   472  5.6094e-03  2.6782e-03  9.2882e-03  7.6779e+01  5.5918e-03  8.3460e-03  2.5481e-03  0:08:38 1528
   473  5.5170e-03  2.6789e-03  9.3611e-03  7.7726e+01  5.5002e-03  8.3691e-03  2.5462e-03  0:06:54 1527

  iter  continuity  x-velocity  y-velocity  z-velocity      energy           k       omega     time/iter
   474  5.4332e-03  2.6744e-03  9.4342e-03  7.9606e+01  5.4173e-03  8.3946e-03  2.5416e-03  0:05:31 1526
   475  5.3558e-03  2.6664e-03  9.5067e-03  8.2450e+01  5.3407e-03  8.4295e-03  2.5390e-03  0:04:25 1525
   476  5.2827e-03  2.6556e-03  9.5767e-03  8.4491e+01  5.2685e-03  8.4636e-03  2.5388e-03  0:08:36 1524
   477  5.2052e-03  2.6415e-03  9.6440e-03  8.5384e+01  5.1917e-03  8.4974e-03  2.5326e-03  0:06:53 1523
   478  5.1221e-03  2.6273e-03  9.7110e-03  8.5167e+01  5.1091e-03  8.5258e-03  2.5254e-03  0:05:30 1522
   479  5.0319e-03  2.6131e-03  9.7761e-03  8.4844e+01  5.0194e-03  8.5507e-03  2.5167e-03  0:04:24 1521
   480  4.9339e-03  2.5991e-03  9.8380e-03  8.5358e+01  4.9218e-03  8.5544e-03  2.5151e-03  0:08:35 1520
   481  4.8305e-03  2.5867e-03  9.8963e-03  8.6477e+01  4.8187e-03  8.5627e-03  2.5103e-03  0:06:52 1519
   482  4.7232e-03  2.5750e-03  9.9515e-03  8.7795e+01  4.7116e-03  8.5714e-03  2.5079e-03  0:05:29 1518
   483  4.6145e-03  2.5645e-03  1.0004e-02  8.9197e+01  4.6031e-03  8.5703e-03  2.5021e-03  0:04:23 1517
   484  4.5054e-03  2.5563e-03  1.0054e-02  9.0728e+01  4.4942e-03  8.5713e-03  2.5008e-03  0:08:34 1516

  iter  continuity  x-velocity  y-velocity  z-velocity      energy           k       omega     time/iter
   485  4.3945e-03  2.5513e-03  1.0102e-02  9.2135e+01  4.3833e-03  8.5820e-03  2.4967e-03  0:06:51 1515
   486  4.2812e-03  2.5501e-03  1.0150e-02  9.3051e+01  4.2700e-03  8.5917e-03  2.4950e-03  0:05:28 1514
   487  4.1702e-03  2.5508e-03  1.0198e-02  9.3333e+01  4.1591e-03  8.6037e-03  2.4945e-03  0:04:22 1513
   488  4.0638e-03  2.5527e-03  1.0247e-02  9.3330e+01  4.0527e-03  8.6181e-03  2.4919e-03  0:08:32 1512
   489  3.9660e-03  2.5576e-03  1.0297e-02  9.3010e+01  3.9549e-03  8.6342e-03  2.4879e-03  0:06:49 1511
   490  3.8775e-03  2.5648e-03  1.0347e-02  9.2278e+01  3.8664e-03  8.6493e-03  2.4883e-03  0:05:27 1510
   491  3.7956e-03  2.5737e-03  1.0395e-02  9.0794e+01  3.7845e-03  8.6589e-03  2.4875e-03  0:04:22 1509
   492  3.7193e-03  2.5819e-03  1.0442e-02  8.9824e+01  3.7081e-03  8.6730e-03  2.4944e-03  0:03:29 1508
   493  3.6473e-03  2.5915e-03  1.0490e-02  9.0322e+01  3.6361e-03  8.6950e-03  2.4995e-03  0:07:49 1507
   494  3.5758e-03  2.6026e-03  1.0542e-02  9.0942e+01  3.5646e-03  8.7186e-03  2.4993e-03  0:06:15 1506
   495  3.5052e-03  2.6132e-03  1.0598e-02  9.0097e+01  3.4938e-03  8.7595e-03  2.5026e-03  0:05:00 1505

  iter  continuity  x-velocity  y-velocity  z-velocity      energy           k       omega     time/iter
   496  3.4376e-03  2.6225e-03  1.0647e-02  8.8696e+01  3.4261e-03  8.8014e-03  2.5081e-03  0:03:59 1504
   497  3.3730e-03  2.6330e-03  1.0691e-02  8.9799e+01  3.3613e-03  8.8216e-03  2.5123e-03  0:03:11 1503
   498  3.3099e-03  2.6442e-03  1.0735e-02  8.9192e+01  3.2980e-03  8.8434e-03  2.5174e-03  0:02:33 1502
   499  3.2466e-03  2.6564e-03  1.0781e-02  8.9417e+01  3.2345e-03  8.8752e-03  2.5209e-03  0:02:02 1501
   500  3.1801e-03  2.6677e-03  1.0825e-02  9.0199e+01  3.1678e-03  8.8954e-03  2.5249e-03  0:06:38 1500
   501  3.1145e-03  2.6796e-03  1.0869e-02  9.0722e+01  3.1020e-03  8.9130e-03  2.5276e-03  0:05:18 1499
   502  3.0485e-03  2.6921e-03  1.0909e-02  9.0694e+01  3.0357e-03  8.9403e-03  2.5318e-03  0:04:14 1498
   503  2.9875e-03  2.7044e-03  1.0946e-02  8.9923e+01  2.9744e-03  8.9652e-03  2.5375e-03  0:03:23 1497
   504  2.9367e-03  2.7154e-03  1.0980e-02  8.9036e+01  2.9235e-03  8.9863e-03  2.5422e-03  0:02:43 1496
   505  2.8991e-03  2.7268e-03  1.1011e-02  8.7702e+01  2.8858e-03  9.0100e-03  2.5437e-03  0:02:10 1495
   506  2.8789e-03  2.7377e-03  1.1042e-02  8.6328e+01  2.8656e-03  9.0404e-03  2.5508e-03  0:01:44 1494

  iter  continuity  x-velocity  y-velocity  z-velocity      energy           k       omega     time/iter
   507  2.8790e-03  2.7465e-03  1.1073e-02  8.5900e+01  2.8658e-03  9.0669e-03  2.5544e-03  0:06:22 1493
   508  2.8999e-03  2.7551e-03  1.1106e-02  8.5852e+01  2.8869e-03  9.0907e-03  2.5637e-03  0:05:05 1492
   509  2.9425e-03  2.7628e-03  1.1141e-02  8.5946e+01  2.9298e-03  9.1110e-03  2.5793e-03  0:04:04 1491
   510  3.0069e-03  2.7696e-03  1.1178e-02  8.6535e+01  2.9946e-03  9.1369e-03  2.5948e-03  0:03:15 1490
   511  3.0880e-03  2.7774e-03  1.1213e-02  8.6269e+01  3.0763e-03  9.1743e-03  2.6061e-03  0:02:36 1489
   512  3.1862e-03  2.7860e-03  1.1247e-02  8.5098e+01  3.1749e-03  9.2119e-03  2.6184e-03  0:02:05 1488
   513  3.2998e-03  2.7935e-03  1.1286e-02  8.3302e+01  3.2890e-03  9.2442e-03  2.6256e-03  0:01:40 1487
   514  3.4245e-03  2.8007e-03  1.1327e-02  8.1609e+01  3.4142e-03  9.2613e-03  2.6374e-03  0:06:17 1486
   515  3.5599e-03  2.8083e-03  1.1369e-02  8.1453e+01  3.5500e-03  9.2809e-03  2.6521e-03  0:05:01 1485
   516  3.7062e-03  2.8158e-03  1.1407e-02  8.4973e+01  3.6965e-03  9.2992e-03  2.6598e-03  0:04:01 1484
   517  3.8630e-03  2.8236e-03  1.1441e-02  8.4935e+01  3.8536e-03  9.3061e-03  2.6607e-03  0:03:13 1483

  iter  continuity  x-velocity  y-velocity  z-velocity      energy           k       omega     time/iter
   518  4.0321e-03  2.8315e-03  1.1470e-02  8.0699e+01  4.0227e-03  9.2958e-03  2.6672e-03  0:02:34 1482
   519  4.1999e-03  2.8388e-03  1.1499e-02  7.8209e+01  4.1906e-03  9.2855e-03  2.6692e-03  0:02:03 1481
   520  4.3704e-03  2.8459e-03  1.1528e-02  7.9082e+01  4.3611e-03  9.2989e-03  2.6759e-03  0:01:38 1480
   521  4.5522e-03  2.8535e-03  1.1558e-02  8.0481e+01  4.5427e-03  9.3068e-03  2.6762e-03  0:06:14 1479
   522  4.7188e-03  2.8609e-03  1.1584e-02  8.2217e+01  4.7090e-03  9.2998e-03  2.6785e-03  0:04:59 1478
   523  4.8860e-03  2.8684e-03  1.1607e-02  8.3166e+01  4.8759e-03  9.2929e-03  2.6868e-03  0:03:59 1477
   524  5.0513e-03  2.8754e-03  1.1627e-02  8.3544e+01  5.0407e-03  9.2982e-03  2.6894e-03  0:03:11 1476
   525  5.2019e-03  2.8823e-03  1.1646e-02  8.2780e+01  5.1909e-03  9.3034e-03  2.6930e-03  0:02:33 1475
   526  5.3203e-03  2.8890e-03  1.1663e-02  8.1155e+01  5.3087e-03  9.3078e-03  2.6959e-03  0:02:02 1474
   527  5.4553e-03  2.8956e-03  1.1680e-02  7.9365e+01  5.4431e-03  9.3083e-03  2.6986e-03  0:01:38 1473
   528  5.5752e-03  2.9020e-03  1.1698e-02  7.7819e+01  5.5623e-03  9.2870e-03  2.6987e-03  0:06:13 1472

  iter  continuity  x-velocity  y-velocity  z-velocity      energy           k       omega     time/iter
   529  5.6788e-03  2.9082e-03  1.1714e-02  7.7058e+01  5.6653e-03  9.2769e-03  2.7000e-03  0:04:58 1471
   530  5.7768e-03  2.9136e-03  1.1729e-02  7.6913e+01  5.7627e-03  9.2749e-03  2.7064e-03  0:03:58 1470
   531  5.8537e-03  2.9188e-03  1.1743e-02  7.7441e+01  5.8390e-03  9.2615e-03  2.7106e-03  0:03:10 1469
   532  5.9333e-03  2.9239e-03  1.1755e-02  7.7681e+01  5.9180e-03  9.2294e-03  2.7041e-03  0:02:32 1468
   533  5.9919e-03  2.9285e-03  1.1767e-02  7.6582e+01  5.9760e-03  9.1935e-03  2.7012e-03  0:02:02 1467
   534  6.0593e-03  2.9327e-03  1.1782e-02  7.5147e+01  6.0430e-03  9.1659e-03  2.6972e-03  0:01:37 1466
   535  6.1165e-03  2.9360e-03  1.1798e-02  7.3794e+01  6.0997e-03  9.1321e-03  2.6920e-03  0:06:11 1465
   536  6.1772e-03  2.9397e-03  1.1818e-02  7.2401e+01  6.1600e-03  9.1094e-03  2.6927e-03  0:04:56 1464
   537  6.2446e-03  2.9435e-03  1.1839e-02  7.1645e+01  6.2270e-03  9.0912e-03  2.6918e-03  0:03:57 1463
   538  6.3112e-03  2.9477e-03  1.1862e-02  7.0842e+01  6.2933e-03  9.0438e-03  2.6991e-03  0:03:09 1462
   539  6.3718e-03  2.9520e-03  1.1887e-02  7.0794e+01  6.3535e-03  9.0115e-03  2.7002e-03  0:02:31 1461

  iter  continuity  x-velocity  y-velocity  z-velocity      energy           k       omega     time/iter
   540  6.4322e-03  2.9565e-03  1.1914e-02  6.8235e+01  6.4135e-03  8.9933e-03  2.6988e-03  0:06:53 1460
   541  6.4872e-03  2.9619e-03  1.1946e-02  6.4533e+01  6.4682e-03  8.9691e-03  2.7076e-03  0:05:30 1459
   542  6.5356e-03  2.9680e-03  1.1981e-02  6.3253e+01  6.5164e-03  8.9334e-03  2.7083e-03  0:04:24 1458
   543  6.5887e-03  2.9745e-03  1.2018e-02  6.3892e+01  6.5692e-03  8.8608e-03  2.7064e-03  0:03:31 1457
   544  6.6393e-03  2.9813e-03  1.2058e-02  6.2861e+01  6.6196e-03  8.7786e-03  2.7105e-03  0:07:40 1456
   545  6.6901e-03  2.9885e-03  1.2100e-02  6.0457e+01  6.6702e-03  8.7405e-03  2.7158e-03  0:06:08 1455
   546  6.7443e-03  2.9959e-03  1.2148e-02  5.8161e+01  6.7241e-03  8.7001e-03  2.7186e-03  0:04:54 1454
   547  6.7949e-03  3.0031e-03  1.2201e-02  5.6872e+01  6.7746e-03  8.6598e-03  2.7213e-03  0:03:55 1453
   548  6.8448e-03  3.0106e-03  1.2258e-02  5.5658e+01  6.8244e-03  8.6160e-03  2.7229e-03  0:07:58 1452
   549  6.8970e-03  3.0176e-03  1.2318e-02  5.4560e+01  6.8765e-03  8.5679e-03  2.7240e-03  0:06:22 1451
   550  6.9446e-03  3.0248e-03  1.2381e-02  5.3405e+01  6.9240e-03  8.4895e-03  2.7263e-03  0:05:06 1450

  iter  continuity  x-velocity  y-velocity  z-velocity      energy           k       omega     time/iter
   551  6.9966e-03  3.0322e-03  1.2447e-02  5.2357e+01  6.9759e-03  8.4212e-03  2.7268e-03  0:04:04 1449
   552  7.0434e-03  3.0396e-03  1.2516e-02  5.1618e+01  7.0227e-03  8.3567e-03  2.7337e-03  0:08:05 1448
   553  7.0935e-03  3.0468e-03  1.2587e-02  5.1554e+01  7.0727e-03  8.3092e-03  2.7437e-03  0:06:28 1447
   554  7.1429e-03  3.0539e-03  1.2661e-02  5.2315e+01  7.1220e-03  8.2511e-03  2.7427e-03  0:05:10 1446
   555  7.1903e-03  3.0610e-03  1.2737e-02  5.3226e+01  7.1694e-03  8.1856e-03  2.7428e-03  0:04:08 1445
   556  7.2373e-03  3.0682e-03  1.2814e-02  5.4160e+01  7.2164e-03  8.1167e-03  2.7471e-03  0:08:07 1444
   557  7.2800e-03  3.0756e-03  1.2892e-02  5.5027e+01  7.2590e-03  8.0352e-03  2.7510e-03  0:06:29 1443
   558  7.3173e-03  3.0833e-03  1.2970e-02  5.5440e+01  7.2963e-03  7.9683e-03  2.7515e-03  0:05:11 1442
   559  7.3487e-03  3.0913e-03  1.3048e-02  5.5264e+01  7.3276e-03  7.9227e-03  2.7625e-03  0:04:09 1441
   560  7.3784e-03  3.1001e-03  1.3127e-02  5.4770e+01  7.3572e-03  7.8798e-03  2.7686e-03  0:08:07 1440
   561  7.4075e-03  3.1097e-03  1.3206e-02  5.4429e+01  7.3862e-03  7.8295e-03  2.7733e-03  0:06:29 1439

  iter  continuity  x-velocity  y-velocity  z-velocity      energy           k       omega     time/iter
   562  7.4359e-03  3.1203e-03  1.3286e-02  5.3943e+01  7.4145e-03  7.7702e-03  2.7791e-03  0:05:11 1438
   563  7.4652e-03  3.1312e-03  1.3366e-02  5.2950e+01  7.4437e-03  7.7000e-03  2.7851e-03  0:08:56 1437
   564  7.4963e-03  3.1424e-03  1.3446e-02  5.1337e+01  7.4747e-03  7.6409e-03  2.7890e-03  0:07:09 1436
   565  7.5312e-03  3.1542e-03  1.3527e-02  4.9498e+01  7.5093e-03  7.5970e-03  2.7933e-03  0:05:43 1435
   566  7.5729e-03  3.1663e-03  1.3608e-02  4.7946e+01  7.5508e-03  7.5632e-03  2.7960e-03  0:04:34 1434
   567  7.6219e-03  3.1788e-03  1.3690e-02  4.6599e+01  7.5996e-03  7.5293e-03  2.7959e-03  0:08:26 1433
   568  7.6787e-03  3.1911e-03  1.3771e-02  4.5792e+01  7.6561e-03  7.4813e-03  2.7987e-03  0:06:44 1432
   569  7.7430e-03  3.2027e-03  1.3853e-02  4.5866e+01  7.7200e-03  7.4334e-03  2.8003e-03  0:05:23 1431
   570  7.8148e-03  3.2138e-03  1.3934e-02  4.6013e+01  7.7915e-03  7.3684e-03  2.8045e-03  0:04:18 1430
   571  7.8919e-03  3.2241e-03  1.4015e-02  4.6107e+01  7.8682e-03  7.3120e-03  2.8091e-03  0:08:12 1429
   572  7.9751e-03  3.2342e-03  1.4095e-02  4.6219e+01  7.9510e-03  7.2675e-03  2.8104e-03  0:06:34 1428

  iter  continuity  x-velocity  y-velocity  z-velocity      energy           k       omega     time/iter
   573  8.0652e-03  3.2431e-03  1.4175e-02  4.6361e+01  8.0406e-03  7.2310e-03  2.8154e-03  0:05:15 1427
   574  8.1608e-03  3.2515e-03  1.4254e-02  4.6528e+01  8.1358e-03  7.1876e-03  2.8162e-03  0:04:12 1426
   575  8.2540e-03  3.2593e-03  1.4332e-02  4.6707e+01  8.2285e-03  7.1333e-03  2.8208e-03  0:03:21 1425
   576  8.3444e-03  3.2665e-03  1.4408e-02  4.7035e+01  8.3184e-03  7.0805e-03  2.8168e-03  0:02:41 1424
   577  8.4285e-03  3.2731e-03  1.4484e-02  4.7477e+01  8.4021e-03  7.0187e-03  2.8227e-03  0:06:53 1423
   578  8.5046e-03  3.2786e-03  1.4559e-02  4.8050e+01  8.4778e-03  6.9704e-03  2.8220e-03  0:05:30 1422
   579  8.6026e-03  3.2835e-03  1.4633e-02  4.8811e+01  8.5753e-03  6.9212e-03  2.8232e-03  0:04:24 1421
   580  8.6943e-03  3.2878e-03  1.4705e-02  4.9574e+01  8.6665e-03  6.8699e-03  2.8203e-03  0:03:31 1420
   581  8.7548e-03  3.2918e-03  1.4776e-02  5.0448e+01  8.7267e-03  6.8103e-03  2.8173e-03  0:02:49 1419
   582  8.8136e-03  3.2949e-03  1.4845e-02  5.1357e+01  8.7851e-03  6.7554e-03  2.8120e-03  0:02:15 1418
   583  8.8472e-03  3.2976e-03  1.4912e-02  5.1908e+01  8.8184e-03  6.6953e-03  2.8052e-03  0:01:48 1417

  iter  continuity  x-velocity  y-velocity  z-velocity      energy           k       omega     time/iter
   584  8.8831e-03  3.2996e-03  1.4977e-02  5.2020e+01  8.8541e-03  6.6458e-03  2.7946e-03  0:06:09 1416
   585  8.8943e-03  3.3013e-03  1.5039e-02  5.1711e+01  8.8650e-03  6.6125e-03  2.7877e-03  0:04:55 1415
   586  8.8736e-03  3.3026e-03  1.5096e-02  5.0996e+01  8.8443e-03  6.5612e-03  2.7776e-03  0:03:56 1414
   587  8.8353e-03  3.3046e-03  1.5148e-02  5.0459e+01  8.8060e-03  6.4992e-03  2.7711e-03  0:03:09 1413
   588  8.7799e-03  3.3064e-03  1.5197e-02  4.9749e+01  8.7507e-03  6.4416e-03  2.7619e-03  0:02:31 1412
   589  8.7147e-03  3.3082e-03  1.5245e-02  4.9053e+01  8.6855e-03  6.3754e-03  2.7502e-03  0:02:01 1411
   590  8.6316e-03  3.3105e-03  1.5289e-02  4.8311e+01  8.6026e-03  6.3073e-03  2.7390e-03  0:01:36 1410
   591  8.5275e-03  3.3131e-03  1.5331e-02  4.7605e+01  8.4988e-03  6.2419e-03  2.7257e-03  0:05:59 1409
   592  8.4230e-03  3.3156e-03  1.5369e-02  4.6852e+01  8.3945e-03  6.1814e-03  2.7084e-03  0:04:47 1408
   593  8.3060e-03  3.3179e-03  1.5391e-02  4.6380e+01  8.2779e-03  6.1294e-03  2.6874e-03  0:03:49 1407
   594  8.1677e-03  3.3214e-03  1.5416e-02  4.5687e+01  8.1401e-03  6.0760e-03  2.6717e-03  0:03:03 1406

  iter  continuity  x-velocity  y-velocity  z-velocity      energy           k       omega     time/iter
   595  8.0215e-03  3.3256e-03  1.5441e-02  4.5338e+01  7.9943e-03  6.0230e-03  2.6562e-03  0:02:27 1405
   596  7.8674e-03  3.3289e-03  1.5462e-02  4.4951e+01  7.8408e-03  5.9701e-03  2.6401e-03  0:01:57 1404
   597  7.7104e-03  3.3327e-03  1.5480e-02  4.4578e+01  7.6845e-03  5.9163e-03  2.6204e-03  0:01:34 1403
   598  7.5420e-03  3.3354e-03  1.5496e-02  4.4299e+01  7.5168e-03  5.8743e-03  2.6032e-03  0:01:15 1402
   599  7.3675e-03  3.3381e-03  1.5510e-02  4.4081e+01  7.3429e-03  5.8331e-03  2.5895e-03  0:05:40 1401
   600  7.1912e-03  3.3410e-03  1.5522e-02  4.3822e+01  7.1675e-03  5.7912e-03  2.5778e-03  0:04:32 1400
   601  7.0180e-03  3.3437e-03  1.5532e-02  4.3465e+01  6.9950e-03  5.7585e-03  2.5637e-03  0:03:37 1399
   602  6.8487e-03  3.3471e-03  1.5539e-02  4.2919e+01  6.8266e-03  5.7228e-03  2.5517e-03  0:02:54 1398
   603  6.6842e-03  3.3510e-03  1.5545e-02  4.2442e+01  6.6629e-03  5.6881e-03  2.5407e-03  0:02:19 1397
   604  6.5280e-03  3.3552e-03  1.5549e-02  4.1810e+01  6.5075e-03  5.6536e-03  2.5315e-03  0:01:51 1396
   605  6.3776e-03  3.3588e-03  1.5552e-02  4.1062e+01  6.3580e-03  5.6254e-03  2.5223e-03  0:01:29 1395

  iter  continuity  x-velocity  y-velocity  z-velocity      energy           k       omega     time/iter
   606  6.2276e-03  3.3637e-03  1.5553e-02  4.0272e+01  6.2088e-03  5.6013e-03  2.5139e-03  0:05:50 1394
   607  6.0790e-03  3.3699e-03  1.5552e-02  3.9709e+01  6.0608e-03  5.5801e-03  2.5062e-03  0:04:40 1393
   608  5.9458e-03  3.3755e-03  1.5548e-02  3.9297e+01  5.9281e-03  5.5480e-03  2.4974e-03  0:03:44 1392
   609  5.8190e-03  3.3796e-03  1.5543e-02  3.8824e+01  5.8019e-03  5.5181e-03  2.4891e-03  0:02:59 1391
   610  5.7057e-03  3.3840e-03  1.5536e-02  3.8393e+01  5.6890e-03  5.4897e-03  2.4819e-03  0:02:23 1390
   611  5.6015e-03  3.3885e-03  1.5529e-02  3.7850e+01  5.5851e-03  5.4553e-03  2.4732e-03  0:01:54 1389
   612  5.5114e-03  3.3915e-03  1.5522e-02  3.7411e+01  5.4952e-03  5.4237e-03  2.4636e-03  0:01:31 1388
   613  5.4298e-03  3.3936e-03  1.5515e-02  3.7096e+01  5.4136e-03  5.3968e-03  2.4575e-03  0:05:50 1387
   614  5.3546e-03  3.3961e-03  1.5507e-02  3.6774e+01  5.3384e-03  5.3718e-03  2.4492e-03  0:04:40 1386
   615  5.2767e-03  3.3981e-03  1.5499e-02  3.6556e+01  5.2605e-03  5.3469e-03  2.4420e-03  0:03:44 1385
   616  5.2156e-03  3.3989e-03  1.5492e-02  3.6327e+01  5.1992e-03  5.3202e-03  2.4343e-03  0:02:59 1384

  iter  continuity  x-velocity  y-velocity  z-velocity      energy           k       omega     time/iter
   617  5.1676e-03  3.3987e-03  1.5487e-02  3.6075e+01  5.1509e-03  5.2911e-03  2.4257e-03  0:02:23 1383
   618  5.1174e-03  3.3979e-03  1.5483e-02  3.5719e+01  5.1005e-03  5.2637e-03  2.4170e-03  0:01:54 1382
   619  5.0754e-03  3.3970e-03  1.5480e-02  3.5554e+01  5.0583e-03  5.2385e-03  2.4068e-03  0:01:31 1381
   620  5.0478e-03  3.3956e-03  1.5481e-02  3.5348e+01  5.0304e-03  5.2117e-03  2.3967e-03  0:05:49 1380
   621  5.0235e-03  3.3930e-03  1.5484e-02  3.5258e+01  5.0057e-03  5.1854e-03  2.3864e-03  0:04:39 1379
   622  4.9917e-03  3.3897e-03  1.5490e-02  3.5250e+01  4.9737e-03  5.1642e-03  2.3754e-03  0:03:43 1378
   623  4.9759e-03  3.3860e-03  1.5497e-02  3.5283e+01  4.9576e-03  5.1455e-03  2.3674e-03  0:02:58 1377
   624  4.9665e-03  3.3814e-03  1.5507e-02  3.5323e+01  4.9480e-03  5.1259e-03  2.3596e-03  0:02:23 1376
   625  4.9553e-03  3.3747e-03  1.5518e-02  3.5351e+01  4.9364e-03  5.0922e-03  2.3533e-03  0:01:54 1375
   626  4.9550e-03  3.3663e-03  1.5531e-02  3.5587e+01  4.9359e-03  5.0482e-03  2.3479e-03  0:01:31 1374
[...]
  1838  3.0256e-03  9.8473e-04  4.9294e-03  1.6407e+00  3.0270e-03  1.7376e-03  8.2686e-04  0:00:38  162
  1839  3.0145e-03  9.8371e-04  4.8970e-03  1.5889e+00  3.0158e-03  1.7333e-03  8.2551e-04  0:00:30  161
  1840  3.0025e-03  9.8261e-04  4.8645e-03  1.4960e+00  3.0038e-03  1.7284e-03  8.2438e-04  0:00:24  160
  1841  2.9901e-03  9.8142e-04  4.8320e-03  1.4478e+00  2.9913e-03  1.7229e-03  8.2419e-04  0:00:19  159
  1842  2.9774e-03  9.8016e-04  4.7997e-03  1.4068e+00  2.9785e-03  1.7160e-03  8.2318e-04  0:00:47  158
  1843  2.9645e-03  9.7880e-04  4.7675e-03  1.3729e+00  2.9656e-03  1.7071e-03  8.2054e-04  0:00:37  157
  1844  2.9531e-03  9.7736e-04  4.7355e-03  1.3729e+00  2.9541e-03  1.6967e-03  8.1806e-04  0:00:30  156
  1845  2.9446e-03  9.7585e-04  4.7039e-03  1.3741e+00  2.9456e-03  1.6848e-03  8.1490e-04  0:00:24  155
  1846  2.9389e-03  9.7428e-04  4.6729e-03  1.3716e+00  2.9398e-03  1.6714e-03  8.1030e-04  0:00:19  154
  1847  2.9364e-03  9.7264e-04  4.6426e-03  1.3646e+00  2.9373e-03  1.6581e-03  8.0606e-04  0:00:45  153
  1848  2.9381e-03  9.7097e-04  4.6131e-03  1.3539e+00  2.9389e-03  1.6440e-03  8.0211e-04  0:00:36  152

  iter  continuity  x-velocity  y-velocity  z-velocity      energy           k       omega     time/iter
  1849  2.9435e-03  9.6925e-04  4.5844e-03  1.3824e+00  2.9444e-03  1.6296e-03  8.0060e-04  0:00:29  151
  1850  2.9538e-03  9.6749e-04  4.5566e-03  1.4272e+00  2.9547e-03  1.6130e-03  8.0031e-04  0:00:23  150
  1851  2.9702e-03  9.6570e-04  4.5295e-03  1.4695e+00  2.9710e-03  1.5963e-03  7.9858e-04  0:00:18  149
  1852  2.9931e-03  9.6390e-04  4.5033e-03  1.5333e+00  2.9939e-03  1.5810e-03  7.9762e-04  0:00:44  148
  1853  3.0206e-03  9.6208e-04  4.4778e-03  1.6346e+00  3.0215e-03  1.5643e-03  7.9394e-04  0:00:35  147
  1854  3.0508e-03  9.6025e-04  4.4530e-03  1.7492e+00  3.0517e-03  1.5496e-03  7.8910e-04  0:00:28  146
  1855  3.0787e-03  9.5839e-04  4.4290e-03  1.8479e+00  3.0796e-03  1.5356e-03  7.8497e-04  0:00:22  145
  1856  3.1007e-03  9.5651e-04  4.4057e-03  1.9316e+00  3.1016e-03  1.5223e-03  7.8071e-04  0:00:18  144
  1857  3.1188e-03  9.5461e-04  4.3832e-03  2.0030e+00  3.1197e-03  1.5094e-03  7.7564e-04  0:00:43  143
  1858  3.1344e-03  9.5269e-04  4.3615e-03  2.0632e+00  3.1353e-03  1.4982e-03  7.7121e-04  0:00:34  142
  1859  3.1482e-03  9.5078e-04  4.3404e-03  2.1179e+00  3.1491e-03  1.4861e-03  7.6807e-04  0:00:27  141

  iter  continuity  x-velocity  y-velocity  z-velocity      energy           k       omega     time/iter
  1860  3.1602e-03  9.4885e-04  4.3199e-03  2.1532e+00  3.1610e-03  1.4736e-03  7.6639e-04  0:00:21  140
  1861  3.1672e-03  9.4695e-04  4.3000e-03  2.1861e+00  3.1681e-03  1.4619e-03  7.6492e-04  0:00:17  139
  1862  3.1729e-03  9.4505e-04  4.2806e-03  2.2424e+00  3.1737e-03  1.4512e-03  7.6393e-04  0:00:13  138
  1863  3.1703e-03  9.4313e-04  4.2617e-03  2.3196e+00  3.1710e-03  1.4400e-03  7.6366e-04  0:00:38  137
  1864  3.1631e-03  9.4119e-04  4.2432e-03  2.3941e+00  3.1638e-03  1.4285e-03  7.6284e-04  0:00:30  136
  1865  3.1519e-03  9.3926e-04  4.2249e-03  2.4788e+00  3.1525e-03  1.4162e-03  7.6087e-04  0:00:24  135
  1866  3.1350e-03  9.3739e-04  4.2067e-03  2.5311e+00  3.1356e-03  1.4041e-03  7.5876e-04  0:00:19  134
  1867  3.1150e-03  9.3556e-04  4.1883e-03  2.5042e+00  3.1155e-03  1.3921e-03  7.5545e-04  0:00:15  133
  1868  3.0930e-03  9.3374e-04  4.1700e-03  2.4830e+00  3.0934e-03  1.3803e-03  7.5171e-04  0:00:38  132
  1869  3.0682e-03  9.3195e-04  4.1516e-03  2.4620e+00  3.0685e-03  1.3696e-03  7.5033e-04  0:00:31  131
  1870  3.0400e-03  9.3023e-04  4.1330e-03  2.4300e+00  3.0403e-03  1.3597e-03  7.4912e-04  0:00:24  130

  iter  continuity  x-velocity  y-velocity  z-velocity      energy           k       omega     time/iter
  1871  3.0090e-03  9.2858e-04  4.1142e-03  2.3996e+00  3.0092e-03  1.3496e-03  7.4883e-04  0:00:19  129
  1872  2.9749e-03  9.2702e-04  4.0953e-03  2.3561e+00  2.9750e-03  1.3402e-03  7.4813e-04  0:00:15  128
  1873  2.9358e-03  9.2551e-04  4.0762e-03  2.3573e+00  2.9359e-03  1.3313e-03  7.4665e-04  0:00:38  127
  1874  2.8971e-03  9.2406e-04  4.0568e-03  2.4193e+00  2.8970e-03  1.3229e-03  7.4551e-04  0:00:30  126
  1875  2.8635e-03  9.2268e-04  4.0373e-03  2.4520e+00  2.8634e-03  1.3144e-03  7.4387e-04  0:00:24  125
  1876  2.8330e-03  9.2136e-04  4.0177e-03  2.4662e+00  2.8328e-03  1.3060e-03  7.4076e-04  0:00:19  124
  1877  2.8042e-03  9.2007e-04  3.9982e-03  2.4622e+00  2.8040e-03  1.2974e-03  7.4058e-04  0:00:15  123
  1878  2.7772e-03  9.1884e-04  3.9789e-03  2.4505e+00  2.7770e-03  1.2890e-03  7.3940e-04  0:00:36  122
  1879  2.7524e-03  9.1769e-04  3.9596e-03  2.4346e+00  2.7521e-03  1.2810e-03  7.3851e-04  0:00:29  121
  1880  2.7311e-03  9.1661e-04  3.9406e-03  2.4137e+00  2.7308e-03  1.2743e-03  7.3754e-04  0:00:23  120
  1881  2.7098e-03  9.1557e-04  3.9218e-03  2.3902e+00  2.7095e-03  1.2681e-03  7.3703e-04  0:00:18  119

  iter  continuity  x-velocity  y-velocity  z-velocity      energy           k       omega     time/iter
  1882  2.6918e-03  9.1454e-04  3.9032e-03  2.3643e+00  2.6914e-03  1.2625e-03  7.3604e-04  0:00:14  118
  1883  2.6811e-03  9.1352e-04  3.8846e-03  2.3439e+00  2.6808e-03  1.2576e-03  7.3393e-04  0:00:11  117
  1884  2.6739e-03  9.1241e-04  3.8657e-03  2.3120e+00  2.6735e-03  1.2534e-03  7.3088e-04  0:00:32  116
  1885  2.6667e-03  9.1143e-04  3.8473e-03  2.2738e+00  2.6664e-03  1.2486e-03  7.2801e-04  0:00:26  115
  1886  2.6599e-03  9.1059e-04  3.8296e-03  2.2234e+00  2.6595e-03  1.2432e-03  7.2660e-04  0:00:20  114
  1887  2.6531e-03  9.0989e-04  3.8123e-03  2.1752e+00  2.6527e-03  1.2381e-03  7.2600e-04  0:00:16  113
  1888  2.6449e-03  9.0915e-04  3.7953e-03  2.1444e+00  2.6445e-03  1.2354e-03  7.2461e-04  0:00:13  112
  1889  2.6351e-03  9.0831e-04  3.7787e-03  2.1140e+00  2.6347e-03  1.2333e-03  7.2490e-04  0:00:32  111
  1890  2.6227e-03  9.0733e-04  3.7627e-03  2.0701e+00  2.6222e-03  1.2308e-03  7.2406e-04  0:00:26  110
  1891  2.6068e-03  9.0619e-04  3.7470e-03  2.0197e+00  2.6063e-03  1.2268e-03  7.2419e-04  0:00:20  109
  1892  2.5865e-03  9.0481e-04  3.7319e-03  1.9754e+00  2.5860e-03  1.2224e-03  7.2428e-04  0:00:16  108

  iter  continuity  x-velocity  y-velocity  z-velocity      energy           k       omega     time/iter
  1893  2.5621e-03  9.0323e-04  3.7173e-03  1.9209e+00  2.5614e-03  1.2182e-03  7.2317e-04  0:00:13  107
  1894  2.5345e-03  9.0153e-04  3.7032e-03  1.8592e+00  2.5338e-03  1.2138e-03  7.2236e-04  0:00:31  106
  1895  2.5051e-03  8.9969e-04  3.6895e-03  1.8014e+00  2.5044e-03  1.2090e-03  7.2135e-04  0:00:25  105
  1896  2.4736e-03  8.9767e-04  3.6766e-03  1.7532e+00  2.4728e-03  1.2044e-03  7.1863e-04  0:00:20  104
  1897  2.4402e-03  8.9545e-04  3.6645e-03  1.7036e+00  2.4393e-03  1.1994e-03  7.1819e-04  0:00:16  103
  1898  2.4056e-03  8.9305e-04  3.6532e-03  1.6541e+00  2.4047e-03  1.1942e-03  7.1752e-04  0:00:12  102
  1899  2.3708e-03  8.9047e-04  3.6428e-03  1.6133e+00  2.3698e-03  1.1893e-03  7.1696e-04  0:00:30  101
  1900  2.3363e-03  8.8774e-04  3.6330e-03  1.5783e+00  2.3353e-03  1.1861e-03  7.1655e-04  0:00:24  100
  1901  2.3026e-03  8.8486e-04  3.6240e-03  1.5378e+00  2.3015e-03  1.1826e-03  7.1608e-04  0:00:19   99
  1902  2.2697e-03  8.8191e-04  3.6160e-03  1.5003e+00  2.2686e-03  1.1788e-03  7.1542e-04  0:00:15   98
  1903  2.2376e-03  8.7891e-04  3.6087e-03  1.4674e+00  2.2364e-03  1.1749e-03  7.1484e-04  0:00:12   97

  iter  continuity  x-velocity  y-velocity  z-velocity      energy           k       omega     time/iter
  1904  2.2056e-03  8.7589e-04  3.6027e-03  1.4417e+00  2.2044e-03  1.1714e-03  7.1546e-04  0:00:29   96
  1905  2.1732e-03  8.7289e-04  3.5976e-03  1.4250e+00  2.1720e-03  1.1681e-03  7.1671e-04  0:00:23   95
  1906  2.1403e-03  8.6994e-04  3.5933e-03  1.4095e+00  2.1390e-03  1.1641e-03  7.1725e-04  0:00:18   94
  1907  2.1071e-03  8.6706e-04  3.5899e-03  1.3932e+00  2.1059e-03  1.1602e-03  7.1755e-04  0:00:14   93
  1908  2.0742e-03  8.6425e-04  3.5872e-03  1.3782e+00  2.0730e-03  1.1559e-03  7.1818e-04  0:00:11   92
  1909  2.0421e-03  8.6147e-04  3.5853e-03  1.3751e+00  2.0408e-03  1.1521e-03  7.1869e-04  0:00:27   91
  1910  2.0107e-03  8.5866e-04  3.5838e-03  1.3796e+00  2.0095e-03  1.1484e-03  7.2049e-04  0:00:21   90
  1911  1.9806e-03  8.5578e-04  3.5829e-03  1.3841e+00  1.9794e-03  1.1446e-03  7.2086e-04  0:00:17   89
  1912  1.9519e-03  8.5277e-04  3.5823e-03  1.4081e+00  1.9506e-03  1.1404e-03  7.2077e-04  0:00:13   88
  1913  1.9245e-03  8.4959e-04  3.5820e-03  1.4439e+00  1.9233e-03  1.1360e-03  7.1979e-04  0:00:11   87
  1914  1.8986e-03  8.4619e-04  3.5818e-03  1.4966e+00  1.8973e-03  1.1306e-03  7.1969e-04  0:00:08   86

  iter  continuity  x-velocity  y-velocity  z-velocity      energy           k       omega     time/iter
  1915  1.8738e-03  8.4253e-04  3.5817e-03  1.5679e+00  1.8726e-03  1.1240e-03  7.1956e-04  0:00:24   85
  1916  1.8502e-03  8.3861e-04  3.5815e-03  1.6482e+00  1.8489e-03  1.1183e-03  7.1995e-04  0:00:19   84
  1917  1.8272e-03  8.3445e-04  3.5810e-03  1.7378e+00  1.8259e-03  1.1127e-03  7.2032e-04  0:00:15   83
  1918  1.8046e-03  8.3005e-04  3.5798e-03  1.8431e+00  1.8033e-03  1.1070e-03  7.2066e-04  0:00:12   82
  1919  1.7820e-03  8.2539e-04  3.5787e-03  1.9708e+00  1.7806e-03  1.1011e-03  7.2126e-04  0:00:09   81
  1920  1.7594e-03  8.2056e-04  3.5774e-03  2.1280e+00  1.7580e-03  1.0955e-03  7.2206e-04  0:00:23   80
  1921  1.7370e-03  8.1559e-04  3.5761e-03  2.3187e+00  1.7355e-03  1.0901e-03  7.2352e-04  0:00:18   79
  1922  1.7152e-03  8.1054e-04  3.5747e-03  2.5364e+00  1.7137e-03  1.0850e-03  7.2347e-04  0:00:15   78
  1923  1.6944e-03  8.0542e-04  3.5733e-03  2.7857e+00  1.6929e-03  1.0804e-03  7.2400e-04  0:00:11   77
  1924  1.6750e-03  8.0035e-04  3.5720e-03  3.0617e+00  1.6735e-03  1.0761e-03  7.2507e-04  0:00:09   76
  1925  1.6575e-03  7.9547e-04  3.5706e-03  3.3670e+00  1.6560e-03  1.0720e-03  7.2598e-04  0:00:22   75

  iter  continuity  x-velocity  y-velocity  z-velocity      energy           k       omega     time/iter
  1926  1.6417e-03  7.9080e-04  3.5694e-03  3.7194e+00  1.6402e-03  1.0688e-03  7.2676e-04  0:00:17   74
  1927  1.6281e-03  7.8648e-04  3.5681e-03  4.1301e+00  1.6266e-03  1.0670e-03  7.2851e-04  0:00:14   73
  1928  1.6168e-03  7.8252e-04  3.5667e-03  4.5958e+00  1.6153e-03  1.0657e-03  7.2884e-04  0:00:11   72
  1929  1.6074e-03  7.7877e-04  3.5652e-03  5.1195e+00  1.6059e-03  1.0638e-03  7.2966e-04  0:00:09   71
  1930  1.5999e-03  7.7525e-04  3.5636e-03  5.7112e+00  1.5984e-03  1.0615e-03  7.3103e-04  0:00:21   70
  1931  1.5941e-03  7.7206e-04  3.5618e-03  6.3267e+00  1.5927e-03  1.0603e-03  7.3202e-04  0:00:16   69
  1932  1.5898e-03  7.6893e-04  3.5597e-03  6.9905e+00  1.5883e-03  1.0593e-03  7.3199e-04  0:00:13   68
  1933  1.5868e-03  7.6591e-04  3.5575e-03  7.7310e+00  1.5853e-03  1.0576e-03  7.3336e-04  0:00:10   67
  1934  1.5821e-03  7.6304e-04  3.5552e-03  8.6126e+00  1.5807e-03  1.0562e-03  7.3473e-04  0:00:08   66
  1935  1.5767e-03  7.6036e-04  3.5525e-03  9.5395e+00  1.5753e-03  1.0547e-03  7.3608e-04  0:00:06   65
  1936  1.5723e-03  7.5787e-04  3.5499e-03  1.0555e+01  1.5708e-03  1.0535e-03  7.3749e-04  0:00:18   64

  iter  continuity  x-velocity  y-velocity  z-velocity      energy           k       omega     time/iter
  1937  1.5673e-03  7.5554e-04  3.5472e-03  1.1820e+01  1.5659e-03  1.0526e-03  7.3924e-04  0:00:14   63
  1938  1.5612e-03  7.5333e-04  3.5442e-03  1.3249e+01  1.5596e-03  1.0520e-03  7.4146e-04  0:00:11   62
  1939  1.5553e-03  7.5123e-04  3.5409e-03  1.4830e+01  1.5538e-03  1.0519e-03  7.4393e-04  0:00:09   61
  1940  1.5510e-03  7.4927e-04  3.5375e-03  1.6566e+01  1.5494e-03  1.0519e-03  7.4583e-04  0:00:07   60
  1941  1.5492e-03  7.4738e-04  3.5338e-03  1.8477e+01  1.5476e-03  1.0523e-03  7.5370e-04  0:00:17   59
  1942  1.5504e-03  7.4554e-04  3.5300e-03  2.0527e+01  1.5486e-03  1.0523e-03  7.5404e-04  0:00:14   58
  1943  1.5545e-03  7.4373e-04  3.5259e-03  2.2737e+01  1.5527e-03  1.0528e-03  7.5351e-04  0:00:11   57
  1944  1.5616e-03  7.4197e-04  3.5217e-03  2.5134e+01  1.5598e-03  1.0524e-03  7.5363e-04  0:00:08   56
  1945  1.5709e-03  7.4029e-04  3.5176e-03  2.7787e+01  1.5691e-03  1.0515e-03  7.5392e-04  0:00:07   55
  1946  1.5825e-03  7.3875e-04  3.5135e-03  3.0506e+01  1.5806e-03  1.0503e-03  7.5463e-04  0:00:16   54
  1947  1.5970e-03  7.3739e-04  3.5096e-03  3.3364e+01  1.5950e-03  1.0489e-03  7.5603e-04  0:00:13   53

  iter  continuity  x-velocity  y-velocity  z-velocity      energy           k       omega     time/iter
  1948  1.6156e-03  7.3626e-04  3.5058e-03  3.6429e+01  1.6136e-03  1.0478e-03  7.5752e-04  0:00:10   52
  1949  1.6341e-03  7.3537e-04  3.5024e-03  3.9971e+01  1.6321e-03  1.0468e-03  7.5914e-04  0:00:08   51
  1950  1.6528e-03  7.3469e-04  3.4994e-03  4.3644e+01  1.6507e-03  1.0458e-03  7.6169e-04  0:00:06   50
  1951  1.6720e-03  7.3423e-04  3.4967e-03  4.7371e+01  1.6700e-03  1.0453e-03  7.6396e-04  0:00:05   49
  1952  1.6934e-03  7.3398e-04  3.4943e-03  5.1162e+01  1.6914e-03  1.0452e-03  7.6677e-04  0:00:13   48
  1953  1.7185e-03  7.3388e-04  3.4921e-03  5.4941e+01  1.7165e-03  1.0453e-03  7.6917e-04  0:00:10   47
  1954  1.7471e-03  7.3392e-04  3.4902e-03  5.8689e+01  1.7451e-03  1.0455e-03  7.7090e-04  0:00:08   46
  1955  1.7778e-03  7.3412e-04  3.4885e-03  6.2761e+01  1.7758e-03  1.0459e-03  7.7265e-04  0:00:06   45
  1956  1.8095e-03  7.3443e-04  3.4868e-03  6.6945e+01  1.8075e-03  1.0465e-03  7.7348e-04  0:00:05   44
  1957  1.8421e-03  7.3486e-04  3.4852e-03  7.0859e+01  1.8402e-03  1.0471e-03  7.7579e-04  0:00:13   43
  1958  1.8767e-03  7.3542e-04  3.4837e-03  7.4332e+01  1.8748e-03  1.0483e-03  7.7689e-04  0:00:10   42

  iter  continuity  x-velocity  y-velocity  z-velocity      energy           k       omega     time/iter
  1959  1.9138e-03  7.3614e-04  3.4823e-03  7.7689e+01  1.9118e-03  1.0494e-03  7.7938e-04  0:00:08   41
  1960  1.9534e-03  7.3707e-04  3.4811e-03  8.0801e+01  1.9515e-03  1.0506e-03  7.8257e-04  0:00:06   40
  1961  1.9977e-03  7.3762e-04  3.4798e-03  8.3888e+01  1.9958e-03  1.0520e-03  7.8533e-04  0:00:05   39
  1962  2.0484e-03  7.3772e-04  3.4782e-03  8.6783e+01  2.0465e-03  1.0534e-03  7.8688e-04  0:00:11   38
  1963  2.1009e-03  7.3921e-04  3.4770e-03  8.9321e+01  2.0990e-03  1.0542e-03  7.8803e-04  0:00:09   37
  1964  2.1560e-03  7.4173e-04  3.4775e-03  9.1567e+01  2.1542e-03  1.0543e-03  7.9006e-04  0:00:07   36
  1965  2.2139e-03  7.4470e-04  3.4796e-03  9.3526e+01  2.2122e-03  1.0539e-03  7.9257e-04  0:00:05   35
  1966  2.2769e-03  7.4811e-04  3.4832e-03  9.4925e+01  2.2754e-03  1.0534e-03  7.9561e-04  0:00:04   34
  1967  2.3473e-03  7.4947e-04  3.4873e-03  9.5737e+01  2.3459e-03  1.0529e-03  7.9868e-04  0:00:03   33
  1968  2.4231e-03  7.5225e-04  3.4924e-03  9.5787e+01  2.4218e-03  1.0527e-03  8.0094e-04  0:00:09   32
  1969  2.5011e-03  7.5638e-04  3.4989e-03  9.4936e+01  2.4999e-03  1.0528e-03  8.0264e-04  0:00:07   31

  iter  continuity  x-velocity  y-velocity  z-velocity      energy           k       omega     time/iter
  1970  2.5829e-03  7.6064e-04  3.5064e-03  9.3438e+01  2.5818e-03  1.0528e-03  8.0557e-04  0:00:05   30
  1971  2.6692e-03  7.6450e-04  3.5141e-03  9.1411e+01  2.6682e-03  1.0524e-03  8.0830e-04  0:00:04   29
  1972  2.7626e-03  7.6817e-04  3.5210e-03  8.8935e+01  2.7617e-03  1.0518e-03  8.1003e-04  0:00:03   28
  1973  2.8530e-03  7.7184e-04  3.5274e-03  8.6044e+01  2.8522e-03  1.0510e-03  8.1050e-04  0:00:08   27
  1974  2.9470e-03  7.7543e-04  3.5335e-03  8.2799e+01  2.9463e-03  1.0501e-03  8.1024e-04  0:00:06   26
  1975  3.0360e-03  7.7933e-04  3.5391e-03  7.9257e+01  3.0354e-03  1.0493e-03  8.1126e-04  0:00:05   25
  1976  3.1275e-03  7.8323e-04  3.5445e-03  7.5497e+01  3.1270e-03  1.0486e-03  8.1237e-04  0:00:04   24
  1977  3.2070e-03  7.8708e-04  3.5483e-03  7.1516e+01  3.2066e-03  1.0479e-03  8.1365e-04  0:00:03   23
  1978  3.2882e-03  7.8960e-04  3.5500e-03  6.7435e+01  3.2879e-03  1.0472e-03  8.1514e-04  0:00:06   22
  1979  3.3890e-03  7.9175e-04  3.5513e-03  6.3482e+01  3.3888e-03  1.0464e-03  8.1666e-04  0:00:05   21
  1980  3.5034e-03  7.9496e-04  3.5536e-03  5.9816e+01  3.5035e-03  1.0454e-03  8.1804e-04  0:00:04   20

  iter  continuity  x-velocity  y-velocity  z-velocity      energy           k       omega     time/iter
  1981  3.6238e-03  7.9947e-04  3.5568e-03  5.6449e+01  3.6241e-03  1.0444e-03  8.1901e-04  0:00:03   19
  1982  3.7269e-03  8.0440e-04  3.5596e-03  5.3356e+01  3.7274e-03  1.0438e-03  8.1970e-04  0:00:02   18
  1983  3.8066e-03  8.0872e-04  3.5610e-03  5.0591e+01  3.8073e-03  1.0437e-03  8.2025e-04  0:00:02   17
  1984  3.8847e-03  8.1227e-04  3.5609e-03  4.8503e+01  3.8856e-03  1.0428e-03  8.2082e-04  0:00:04   16
  1985  3.9677e-03  8.1490e-04  3.5597e-03  4.7308e+01  3.9687e-03  1.0421e-03  8.2029e-04  0:00:03   15
  1986  4.0235e-03  8.1692e-04  3.5547e-03  4.7096e+01  4.0247e-03  1.0406e-03  8.2016e-04  0:00:02   14
  1987  4.0720e-03  8.1919e-04  3.5482e-03  4.7830e+01  4.0732e-03  1.0388e-03  8.2083e-04  0:00:02   13
  1988  4.1118e-03  8.2119e-04  3.5412e-03  4.9451e+01  4.1131e-03  1.0367e-03  8.2084e-04  0:00:01   12
  1989  4.1348e-03  8.2326e-04  3.5343e-03  5.1897e+01  4.1362e-03  1.0341e-03  8.2114e-04  0:00:03   11
  1990  4.1492e-03  8.2501e-04  3.5275e-03  5.4978e+01  4.1506e-03  1.0313e-03  8.2134e-04  0:00:02   10
  1991  4.1569e-03  8.2605e-04  3.5208e-03  5.8413e+01  4.1583e-03  1.0283e-03  8.2111e-04  0:00:02    9

  iter  continuity  x-velocity  y-velocity  z-velocity      energy           k       omega     time/iter
  1992  4.1636e-03  8.2687e-04  3.5142e-03  6.2031e+01  4.1651e-03  1.0257e-03  8.1983e-04  0:00:01    8
  1993  4.1810e-03  8.2756e-04  3.5075e-03  6.5721e+01  4.1826e-03  1.0234e-03  8.1840e-04  0:00:01    7
  1994  4.1996e-03  8.2839e-04  3.5003e-03  6.9192e+01  4.2012e-03  1.0210e-03  8.1776e-04  0:00:02    6
  1995  4.2148e-03  8.2761e-04  3.4915e-03  7.2207e+01  4.2165e-03  1.0188e-03  8.1795e-04  0:00:01    5
  1996  4.2138e-03  8.2911e-04  3.4828e-03  7.4363e+01  4.2156e-03  1.0168e-03  8.1799e-04  0:00:01    4
  1997  4.2036e-03  8.3203e-04  3.4753e-03  7.5695e+01  4.2054e-03  1.0144e-03  8.1801e-04  0:00:00    3
  1998  4.1886e-03  8.3569e-04  3.4687e-03  7.6558e+01  4.1904e-03  1.0121e-03  8.1929e-04  0:00:00    2
  1999  4.1702e-03  8.3990e-04  3.4625e-03  7.7001e+01  4.1720e-03  1.0097e-03  8.2024e-04  0:00:00    1
  2000  4.1469e-03  8.4426e-04  3.4565e-03  7.7129e+01  4.1488e-03  1.0080e-03  8.2051e-04  0:00:00    0

> 
adjoint/                parallel/               server/
define/                 parametric-study/       solve/
display/                plot/                   surface/
exit                    preferences/            turbo-workflow/
file/                   print-license-usage     views/
mesh/                   report/

> /file/write-case-data project1
Fast-loading "C:\PROGRA~1\ANSYSI~1\v231\fluent\fluent23.1.0\\addons\afd\lib\hdfio.bin"
Done.

Writing to Engs-30669:"C:\Users\kebl7595\Desktop\CFD\Runs\Flap\Re 3e5\large flap\project1.cas.h5" in NODE0 mode and compression level 1 ...
       30372 cells,     1 zone  ...
      102044 faces,     7 zones ...
       41568 nodes,     1 zone  ...
  Done.
Done.

Writing to Engs-30669:"C:\Users\kebl7595\Desktop\CFD\Runs\Flap\Re 3e5\large flap\project1.dat.h5" in NODE0 mode and compression level 1 ...
  Writing results.
Done.

> /file/export/ascii "./surface.dat" wing () no pressure mach-number quit no

Writing "./surface.dat"...

Writing information to ascii file ...
Done.


> /report/forces/wall-forces y -0.342020 -0.939693 0 y "Lift"

> /report/forces/wall-forces y 0.939693 -0.342020 0 y "Drag"

> /exit

Posting ANSYS Product Improvement Program performance data 
Done.
Auto-Transcript Stop Time:  12:23:04, 22 May 2024 GMT Daylight Time 
Total Transcript Time: 6 Minute 31 Second.
