Auto-Transcript Start Time:  11:06:17, 22 May 2024 GMT Daylight Time 
Current Directory: "C:\Users\kebl7595\Desktop\CFD\Runs\Flap\Shallower Aspect Ratio\0 degrees"

              Welcome to ANSYS Fluent 2023 R1

              Copyright 1987-2023 ANSYS, Inc. All Rights Reserved.
              Unauthorized use, distribution or duplication is prohibited.
              This product is subject to U.S. laws governing export and re-export.
              For full Legal Notice, see documentation.

Build Time: Nov 28 2022 09:52:02 EST  Build Id: 10208  
 
Connected License Server List:	1055@ansyslic.eng.ox.ac.uk

*********************************************
Info: Your license enables 4-way parallel execution.
For faster simulations, please start the application with the appropriate parallel options.
*********************************************


     --------------------------------------------------------------
     This is an academic version of ANSYS FLUENT. Usage of this product
     license is limited to the terms and conditions specified in your ANSYS
     license form, additional terms section.
     --------------------------------------------------------------
Host spawning Node 0 on machine "Engs-30669" (win64).

------------------------------------------------------------------------------------
ID    Hostname    Core  O.S.         PID    Vendor                                 
------------------------------------------------------------------------------------
n0    Engs-30669  1/32  Windows-x64  45876  13th Gen Intel(R) Core(TM) i9-13900    
host  Engs-30669        Windows-x64  18480  13th Gen Intel(R) Core(TM) i9-13900    

MPI Option Selected: intel
------------------------------------------------------------------------------------

Cleanup script file is C:\\Users\\kebl7595\\Desktop\\CFD\\Runs\\Flap\\Shallower Aspect Ratio\\0 degrees\\cleanup-fluent-Engs-30669-18480.bat

Posting ANSYS Product Improvement Program startup data
Done.

Reading journal file C:/Users/kebl7595/Desktop/CFD/Runs/Flap/Shallower Aspect Ratio/0 degrees/project1.jou...

> /file/set-batch-options no no no 

> 
define/                 parametric-study/       solve/
display/                plot/                   surface/
exit                    preferences/            switch-to-meshing-mode
file/                   print-license-usage     turbo-workflow/
mesh/                   report/                 views/
parallel/               server/

> /file/import/cgns/mesh  "./project1.cgns"Note: Rank = 0: Process affinity not being set (6).

Importing "./project1.cgns"

Opening library "C:\\PROGRA~1\\ANSYSI~1\\v231\\fluent\\fluent23.1.0\\vki\\win64\\devtools4.4.6.dll"... done.

Read    26676 nodes
   19422 hexahedral cells, zone  1
   14118 quadrilateral wall faces, zone  2.
   50733 quadrilateral interior faces, zone  3.
     474 quadrilateral interface faces, zone  4.

Building...
     mesh
     materials,
     interface,
     domains,
     zones,
	interface-default_subface
	default_interior-1
	default_subface
	default
     parallel,
The automatic selection for flux type has changed to Rhie-Chow: momentum based.

Done.


> 
adjoint/                parallel/               server/
define/                 parametric-study/       solve/
display/                plot/                   surface/
exit                    preferences/            turbo-workflow/
file/                   print-license-usage     views/
mesh/                   report/

> /define/models/solver/density-based-implicit yes

> 
adjoint/                parallel/               server/
define/                 parametric-study/       solve/
display/                plot/                   surface/
exit                    preferences/            turbo-workflow/
file/                   print-license-usage     views/
mesh/                   report/

> /define/models/energy? yes yes invalid command [yes]
yes

> /define/models/viscous/kw-standard? yes

> 
adjoint/                parallel/               server/
define/                 parametric-study/       solve/
display/                plot/                   surface/
exit                    preferences/            turbo-workflow/
file/                   print-license-usage     views/
mesh/                   report/

> /define/materials/change-create air air air is a fluid
yes 
Density
ideal-gas no data required.

no no no no no no

> 
adjoint/                parallel/               server/
define/                 parametric-study/       solve/
display/                plot/                   surface/
exit                    preferences/            turbo-workflow/
file/                   print-license-usage     views/
mesh/                   report/

> /mesh/modify-zones/sep-face-zone-angle 2 90 yes

 6474 faces in contiguous region 0
 348 faces in contiguous region 1
 618 faces in contiguous region 2
 6474 faces in contiguous region 3
 204 faces in contiguous region 4
 Separates zone 2 into 5 zone(s).
Updating new zone information...
   created new zone default_subface:009 from default_subface
   created new zone default_subface:008 from default_subface
   created new zone default_subface:007 from default_subface
   created new zone default_subface:006 from default_subface
done.

> 
adjoint/                parallel/               server/
define/                 parametric-study/       solve/
display/                plot/                   surface/
exit                    preferences/            turbo-workflow/
file/                   print-license-usage     views/
mesh/                   report/

> /define/boundary-conditions/zone-name  6 wing

> /define/boundary-conditions/zone-name  2 sym1

> /define/boundary-conditions/zone-name  8 sym2

> 
adjoint/                parallel/               server/
define/                 parametric-study/       solve/
display/                plot/                   surface/
exit                    preferences/            turbo-workflow/
file/                   print-license-usage     views/
mesh/                   report/

> /define/boundary-conditions/zone-name  7 far1

> /define/boundary-conditions/zone-name 9 far2

> 
adjoint/                parallel/               server/
define/                 parametric-study/       solve/
display/                plot/                   surface/
exit                    preferences/            turbo-workflow/
file/                   print-license-usage     views/
mesh/                   report/

> /define/boundary-conditions/zone-type  7 pressure-far-field

> /define/boundary-conditions/zone-type 9 pressure-far-field

> /define/boundary-conditions/zone-type  2 symmetry

> /define/boundary-conditions/zone-type  8 symmetry

> 
adjoint/                parallel/               server/
define/                 parametric-study/       solve/
display/                plot/                   surface/
exit                    preferences/            turbo-workflow/
file/                   print-license-usage     views/
mesh/                   report/

> /define/boundary-conditions/pressure-far-field (far2 far1)
far1 no 0 no 0.1 no 300 yes no 1 no -0. no 0. no yes 5 0.02

> /define/boundary-conditions/pressure-far-field (far2 far1)
far2 no 0 no 0.1 no 300 yes no 1 no -0. no 0. no yes 5 0.02

> 
adjoint/                parallel/               server/
define/                 parametric-study/       solve/
display/                plot/                   surface/
exit                    preferences/            turbo-workflow/
file/                   print-license-usage     views/
mesh/                   report/

> /solve/initialize/compute-defaults/pressure-far-field (far2 far1)
far1

> /solve/initialize/initialize-flow

> 
adjoint/                parallel/               server/
define/                 parametric-study/       solve/
display/                plot/                   surface/
exit                    preferences/            turbo-workflow/
file/                   print-license-usage     views/
mesh/                   report/

> /solve/monitors/residual/convergence-criteria 1.e-9 1.e-9 1.e-9 1.e-9 1.e-9 1.e-9 1.e-9

> /solve/iterate 2000

  iter  continuity  x-velocity  y-velocity  z-velocity      energy           k       omega     time/iter
     1  1.0000e+00  1.0000e+00  1.0000e+00  1.0000e+00  1.0000e+00  5.8442e-02  5.0819e-02  0:00:00 1999
     2  5.3184e-01  5.5740e-01  4.7340e-01  1.0000e+00  5.3201e-01  5.2363e-02  4.1580e-02  0:33:18 1998
     3  2.8519e-01  3.1222e-01  2.8764e-01  1.0000e+00  2.8518e-01  4.7273e-02  3.7454e-02  0:26:38 1997
     4  1.7215e-01  1.6456e-01  2.1220e-01  8.6020e-01  1.7204e-01  4.2999e-02  3.4278e-02  0:21:17 1996
     5  1.3103e-01  9.7935e-02  1.6634e-01  8.8911e-01  1.3088e-01  3.9446e-02  3.1713e-02  0:17:01 1995
     6  1.1557e-01  6.9789e-02  1.4126e-01  9.9629e-01  1.1545e-01  3.6351e-02  2.9516e-02  0:13:37 1994
     7  1.0456e-01  5.7739e-02  1.2932e-01  1.0369e+00  1.0447e-01  3.3650e-02  2.7558e-02  0:10:53 1993
     8  9.7656e-02  5.4893e-02  1.2246e-01  1.0389e+00  9.7589e-02  3.1303e-02  2.5833e-02  0:08:42 1992
     9  8.8760e-02  5.0323e-02  1.1683e-01  1.0522e+00  8.8708e-02  2.9280e-02  2.4321e-02  0:06:58 1991
    10  8.2362e-02  4.7843e-02  1.1023e-01  1.0674e+00  8.2304e-02  2.7510e-02  2.3004e-02  0:05:34 1990
    11  7.5330e-02  4.7012e-02  1.0269e-01  1.0539e+00  7.5266e-02  2.5962e-02  2.1832e-02  0:04:27 1989

  iter  continuity  x-velocity  y-velocity  z-velocity      energy           k       omega     time/iter
    12  6.8295e-02  4.5167e-02  9.6224e-02  1.0422e+00  6.8226e-02  2.4589e-02  2.0787e-02  0:10:11 1988
    13  6.2353e-02  4.3495e-02  8.9044e-02  1.0303e+00  6.2278e-02  2.3381e-02  1.9862e-02  0:08:09 1987
    14  5.8473e-02  4.2799e-02  8.2900e-02  1.0124e+00  5.8397e-02  2.2341e-02  1.9043e-02  0:06:31 1986
    15  5.6225e-02  4.2187e-02  7.8637e-02  9.7287e-01  5.6148e-02  2.1418e-02  1.8311e-02  0:05:12 1985
    16  5.3787e-02  4.1635e-02  7.5177e-02  9.4048e-01  5.3714e-02  2.0597e-02  1.7644e-02  0:04:10 1984
    17  5.1122e-02  4.0748e-02  7.1672e-02  9.2285e-01  5.1054e-02  1.9858e-02  1.7021e-02  0:03:20 1983
    18  4.9187e-02  3.8759e-02  6.8766e-02  9.1366e-01  4.9123e-02  1.9175e-02  1.6454e-02  0:02:40 1982
    19  4.7944e-02  3.6351e-02  6.6702e-02  9.2428e-01  4.7884e-02  1.8561e-02  1.5898e-02  0:02:08 1981
    20  4.8043e-02  3.3892e-02  6.4369e-02  8.9868e-01  4.7984e-02  1.7987e-02  1.5403e-02  0:01:42 1980
    21  4.8310e-02  3.1808e-02  6.2127e-02  8.7849e-01  4.8254e-02  1.7452e-02  1.4962e-02  0:01:22 1979
    22  4.9370e-02  2.9847e-02  6.0219e-02  9.1779e-01  4.9316e-02  1.6990e-02  1.4573e-02  0:01:05 1978

  iter  continuity  x-velocity  y-velocity  z-velocity      energy           k       omega     time/iter
    23  4.9166e-02  2.7521e-02  5.8790e-02  9.5072e-01  4.9115e-02  1.6560e-02  1.4176e-02  0:00:52 1977
    24  5.0058e-02  2.5368e-02  5.8908e-02  9.6814e-01  5.0006e-02  1.6136e-02  1.3750e-02  0:07:17 1976
    25  5.2063e-02  2.3747e-02  5.9523e-02  9.4222e-01  5.2009e-02  1.5717e-02  1.3395e-02  0:05:49 1975
    26  5.3753e-02  2.2915e-02  6.1094e-02  8.8058e-01  5.3699e-02  1.5400e-02  1.3121e-02  0:04:39 1974
    27  5.4991e-02  2.2496e-02  6.3041e-02  8.3187e-01  5.4938e-02  1.5079e-02  1.2793e-02  0:03:43 1973
    28  5.6120e-02  2.2811e-02  6.6191e-02  7.6624e-01  5.6067e-02  1.4699e-02  1.2434e-02  0:02:59 1972
    29  5.6262e-02  2.3154e-02  6.9670e-02  7.0384e-01  5.6210e-02  1.4389e-02  1.2157e-02  0:02:23 1971
    30  5.5477e-02  2.3907e-02  7.2617e-02  6.4400e-01  5.5426e-02  1.4209e-02  1.1966e-02  0:01:54 1970
    31  5.4360e-02  2.4392e-02  7.5547e-02  6.0254e-01  5.4312e-02  1.3952e-02  1.1765e-02  0:01:31 1969
    32  5.2299e-02  2.5018e-02  7.7023e-02  5.7266e-01  5.2255e-02  1.3688e-02  1.1507e-02  0:01:13 1968
    33  4.9107e-02  2.5735e-02  7.7356e-02  5.7619e-01  4.9065e-02  1.3399e-02  1.1230e-02  0:00:58 1967

  iter  continuity  x-velocity  y-velocity  z-velocity      energy           k       omega     time/iter
    34  4.5805e-02  2.6007e-02  7.6518e-02  5.8111e-01  4.5766e-02  1.3224e-02  1.1057e-02  0:07:20 1966
    35  4.2868e-02  2.6096e-02  7.4202e-02  5.7760e-01  4.2828e-02  1.2963e-02  1.0825e-02  0:05:52 1965
    36  4.0574e-02  2.6040e-02  7.1155e-02  5.5719e-01  4.0535e-02  1.2666e-02  1.0592e-02  0:04:41 1964
    37  3.8234e-02  2.5583e-02  6.8005e-02  5.3206e-01  3.8193e-02  1.2392e-02  1.0343e-02  0:03:45 1963
    38  3.6778e-02  2.4810e-02  6.4729e-02  5.0809e-01  3.6734e-02  1.2097e-02  1.0111e-02  0:03:00 1962
    39  3.6382e-02  2.3825e-02  6.1378e-02  4.8031e-01  3.6337e-02  1.1821e-02  9.8490e-03  0:02:24 1961
    40  3.5548e-02  2.3514e-02  5.7915e-02  4.5170e-01  3.5502e-02  1.1482e-02  9.6066e-03  0:01:55 1960
    41  3.5509e-02  2.2729e-02  5.5203e-02  4.2791e-01  3.5462e-02  1.1206e-02  9.3239e-03  0:01:32 1959
    42  3.6305e-02  2.1470e-02  5.2505e-02  4.1192e-01  3.6259e-02  1.0932e-02  9.0616e-03  0:01:13 1958
    43  3.7430e-02  2.0624e-02  5.0504e-02  4.0547e-01  3.7386e-02  1.0663e-02  8.7950e-03  0:00:59 1957
    44  3.8593e-02  2.0177e-02  4.9411e-02  4.0999e-01  3.8551e-02  1.0422e-02  8.5738e-03  0:00:47 1956

  iter  continuity  x-velocity  y-velocity  z-velocity      energy           k       omega     time/iter
    45  3.9458e-02  2.0195e-02  4.8563e-02  4.2765e-01  3.9418e-02  1.0178e-02  8.3320e-03  0:00:38 1955
    46  4.0153e-02  2.0362e-02  4.8484e-02  4.5150e-01  4.0114e-02  1.0003e-02  8.1469e-03  0:00:30 1954
    47  4.0199e-02  2.1025e-02  4.8684e-02  4.8355e-01  4.0161e-02  9.8319e-03  7.9514e-03  0:06:55 1953
    48  4.0035e-02  2.2002e-02  4.9549e-02  5.3011e-01  3.9998e-02  9.7261e-03  7.8023e-03  0:05:32 1952
    49  3.9044e-02  2.3081e-02  5.0497e-02  5.8855e-01  3.9011e-02  9.6275e-03  7.6685e-03  0:04:25 1951
    50  3.7920e-02  2.4680e-02  5.1548e-02  6.4918e-01  3.7889e-02  9.5319e-03  7.5581e-03  0:03:32 1950
    51  3.6515e-02  2.5906e-02  5.2510e-02  6.9505e-01  3.6485e-02  9.4385e-03  7.4578e-03  0:02:49 1949
    52  3.5618e-02  2.7080e-02  5.2655e-02  7.4609e-01  3.5589e-02  9.3819e-03  7.3872e-03  0:02:16 1948
    53  3.5022e-02  2.7853e-02  5.2964e-02  8.0156e-01  3.4994e-02  9.3232e-03  7.3110e-03  0:01:48 1947
    54  3.5105e-02  2.8005e-02  5.2997e-02  8.6645e-01  3.5078e-02  9.2262e-03  7.2458e-03  0:01:27 1946
    55  3.6083e-02  2.7703e-02  5.2510e-02  9.1377e-01  3.6058e-02  9.1376e-03  7.1575e-03  0:01:09 1945

  iter  continuity  x-velocity  y-velocity  z-velocity      energy           k       omega     time/iter
    56  3.7493e-02  2.7043e-02  5.1738e-02  9.7231e-01  3.7467e-02  9.0245e-03  7.0919e-03  0:00:55 1944
    57  3.9149e-02  2.6122e-02  5.1418e-02  1.0192e+00  3.9125e-02  8.8761e-03  6.9959e-03  0:00:44 1943
    58  4.0515e-02  2.4878e-02  5.1044e-02  1.0568e+00  4.0492e-02  8.8071e-03  6.9365e-03  0:00:35 1942
    59  4.2223e-02  2.3775e-02  5.1003e-02  1.0536e+00  4.2202e-02  8.7317e-03  6.9155e-03  0:06:57 1941
    60  4.4497e-02  2.2656e-02  5.1607e-02  1.0854e+00  4.4477e-02  8.6802e-03  6.8381e-03  0:05:33 1940
    61  4.7008e-02  2.1615e-02  5.3109e-02  1.0991e+00  4.6990e-02  8.6452e-03  6.7781e-03  0:04:26 1939
    62  4.9679e-02  2.0925e-02  5.5207e-02  1.0954e+00  4.9663e-02  8.6393e-03  6.7189e-03  0:03:33 1938
    63  5.1562e-02  2.0676e-02  5.8213e-02  1.0658e+00  5.1547e-02  8.5358e-03  6.6426e-03  0:02:50 1937
    64  5.2036e-02  2.0547e-02  6.1392e-02  9.8007e-01  5.2024e-02  8.5082e-03  6.5568e-03  0:02:16 1936
    65  5.2099e-02  2.0651e-02  6.4256e-02  8.8428e-01  5.2087e-02  8.5434e-03  6.4942e-03  0:01:49 1935
    66  5.0872e-02  2.0944e-02  6.6859e-02  8.2771e-01  5.0858e-02  8.4776e-03  6.4134e-03  0:01:27 1934

  iter  continuity  x-velocity  y-velocity  z-velocity      energy           k       omega     time/iter
    67  4.9252e-02  2.1279e-02  6.9012e-02  8.0079e-01  4.9237e-02  8.3424e-03  6.3512e-03  0:01:10 1933
    68  4.7079e-02  2.1483e-02  7.1185e-02  7.7444e-01  4.7061e-02  8.1491e-03  6.3109e-03  0:00:56 1932
    69  4.5068e-02  2.1596e-02  7.1666e-02  7.3974e-01  4.5049e-02  8.1114e-03  6.3218e-03  0:00:44 1931
    70  4.3948e-02  2.1810e-02  7.0538e-02  6.9675e-01  4.3927e-02  7.9470e-03  6.2684e-03  0:00:36 1930
    71  4.2907e-02  2.1707e-02  6.8287e-02  2.7722e+00  4.2885e-02  7.7552e-03  6.2036e-03  0:06:54 1929
    72  4.2703e-02  2.1291e-02  6.5577e-02  2.8054e+00  4.2680e-02  7.5324e-03  6.1319e-03  0:05:31 1928
    73  4.2519e-02  2.1168e-02  6.2384e-02  1.9019e+00  4.2498e-02  7.3259e-03  6.0167e-03  0:04:25 1927
    74  4.3296e-02  2.1595e-02  5.9061e-02  2.2559e+00  4.3276e-02  7.1563e-03  5.9041e-03  0:03:32 1926
    75  4.4316e-02  2.1294e-02  5.6811e-02  2.0268e+00  4.4295e-02  7.0167e-03  5.8088e-03  0:02:49 1925
    76  4.6392e-02  2.1162e-02  5.5150e-02  1.6560e+00  4.6372e-02  6.9095e-03  5.6800e-03  0:02:15 1924
    77  4.6805e-02  2.1165e-02  5.3357e-02  1.4264e+00  4.6786e-02  6.8129e-03  5.5310e-03  0:01:48 1923

  iter  continuity  x-velocity  y-velocity  z-velocity      energy           k       omega     time/iter
    78  4.6385e-02  2.1031e-02  5.2924e-02  1.3302e+00  4.6364e-02  6.6911e-03  5.4646e-03  0:01:27 1922
    79  4.4766e-02  2.1231e-02  5.3089e-02  1.2829e+00  4.4742e-02  6.5937e-03  5.3610e-03  0:01:09 1921
    80  4.1913e-02  2.1450e-02  5.3373e-02  1.2744e+00  4.1891e-02  6.4600e-03  5.2542e-03  0:00:55 1920
    81  3.8878e-02  2.2069e-02  5.3518e-02  1.3359e+00  3.8856e-02  6.3833e-03  5.2087e-03  0:00:44 1919
    82  3.6788e-02  2.2759e-02  5.3322e-02  1.4471e+00  3.6766e-02  6.3400e-03  5.1769e-03  0:00:35 1918
    83  3.5963e-02  2.2943e-02  5.3059e-02  1.5425e+00  3.5942e-02  6.2616e-03  5.1303e-03  0:00:28 1917
    84  3.6507e-02  2.2954e-02  5.2468e-02  1.6223e+00  3.6487e-02  6.1778e-03  5.0656e-03  0:06:46 1916
    85  3.8045e-02  2.2794e-02  5.1471e-02  1.6660e+00  3.8027e-02  6.0744e-03  5.0292e-03  0:05:24 1915
    86  3.9304e-02  2.2341e-02  5.0664e-02  1.6654e+00  3.9286e-02  6.0105e-03  5.0046e-03  0:04:19 1914
    87  4.0665e-02  2.1568e-02  4.9274e-02  1.6364e+00  4.0647e-02  5.9640e-03  4.9913e-03  0:03:27 1913
    88  4.2470e-02  2.0736e-02  4.8333e-02  1.5752e+00  4.2452e-02  5.9074e-03  4.9934e-03  0:02:46 1912

  iter  continuity  x-velocity  y-velocity  z-velocity      energy           k       omega     time/iter
    89  4.4477e-02  2.0125e-02  4.7852e-02  1.5236e+00  4.4460e-02  5.8466e-03  4.9548e-03  0:02:13 1911
    90  4.6002e-02  1.9533e-02  4.7441e-02  1.4544e+00  4.5986e-02  5.8339e-03  4.8924e-03  0:01:46 1910
    91  4.6438e-02  1.8854e-02  4.8002e-02  1.3763e+00  4.6422e-02  5.7470e-03  4.8406e-03  0:01:25 1909
    92  4.5936e-02  1.8268e-02  4.8825e-02  1.3161e+00  4.5919e-02  5.6735e-03  4.7832e-03  0:01:08 1908
    93  4.4275e-02  1.7853e-02  4.9834e-02  1.2534e+00  4.4258e-02  5.6158e-03  4.7564e-03  0:00:54 1907
    94  4.1923e-02  1.7586e-02  5.0320e-02  1.1892e+00  4.1905e-02  5.5621e-03  4.6685e-03  0:00:43 1906
    95  3.9545e-02  1.7487e-02  5.0678e-02  1.1249e+00  3.9526e-02  5.4403e-03  4.6275e-03  0:00:35 1905
    96  3.7682e-02  1.7283e-02  5.0505e-02  1.0546e+00  3.7662e-02  5.3037e-03  4.5529e-03  0:06:49 1904
    97  3.5895e-02  1.7311e-02  4.9501e-02  9.9225e-01  3.5875e-02  5.1377e-03  4.4851e-03  0:05:27 1903
    98  3.4840e-02  1.7108e-02  4.7665e-02  9.3151e-01  3.4821e-02  5.0559e-03  4.4748e-03  0:04:21 1902
    99  3.4868e-02  1.6836e-02  4.5361e-02  8.8454e-01  3.4849e-02  4.9155e-03  4.3681e-03  0:03:29 1901

  iter  continuity  x-velocity  y-velocity  z-velocity      energy           k       omega     time/iter
   100  3.4463e-02  1.6663e-02  4.2739e-02  8.4274e-01  3.4445e-02  4.7913e-03  4.2857e-03  0:02:47 1900
   101  3.5077e-02  1.6267e-02  4.0178e-02  8.0168e-01  3.5058e-02  4.6528e-03  4.1708e-03  0:02:14 1899
   102  3.6062e-02  1.5977e-02  3.8161e-02  7.6159e-01  3.6043e-02  4.5562e-03  4.0631e-03  0:01:47 1898
   103  3.7025e-02  1.5649e-02  3.6157e-02  7.2343e-01  3.7006e-02  4.4338e-03  3.9374e-03  0:01:25 1897
   104  3.8200e-02  1.5329e-02  3.4872e-02  6.8739e-01  3.8180e-02  4.3834e-03  3.8437e-03  0:01:08 1896
   105  3.8271e-02  1.5122e-02  3.4309e-02  6.5026e-01  3.8250e-02  4.2765e-03  3.7520e-03  0:00:55 1895
   106  3.7006e-02  1.5064e-02  3.3871e-02  6.2217e-01  3.6986e-02  4.2237e-03  3.6543e-03  0:00:44 1894
   107  3.4560e-02  1.5151e-02  3.3703e-02  6.1002e-01  3.4540e-02  4.1439e-03  3.6099e-03  0:00:35 1893
   108  3.1858e-02  1.5241e-02  3.3677e-02  6.1218e-01  3.1837e-02  4.1143e-03  3.5469e-03  0:06:46 1892
   109  2.9751e-02  1.5296e-02  3.3430e-02  6.3059e-01  2.9731e-02  4.0552e-03  3.5092e-03  0:05:25 1891
   110  2.9227e-02  1.5271e-02  3.3025e-02  6.5748e-01  2.9209e-02  4.0073e-03  3.4872e-03  0:04:20 1890

  iter  continuity  x-velocity  y-velocity  z-velocity      energy           k       omega     time/iter
   111  2.9651e-02  1.5179e-02  3.2256e-02  6.8440e-01  2.9634e-02  3.9837e-03  3.4822e-03  0:03:28 1889
   112  3.0788e-02  1.4885e-02  3.1472e-02  7.1088e-01  3.0771e-02  3.9855e-03  3.4936e-03  0:02:46 1888
   113  3.2233e-02  1.4533e-02  3.0605e-02  7.4028e-01  3.2216e-02  3.9581e-03  3.5079e-03  0:02:13 1887
   114  3.3892e-02  1.4086e-02  3.0119e-02  7.5475e-01  3.3875e-02  3.9290e-03  3.5094e-03  0:01:46 1886
   115  3.5429e-02  1.3627e-02  2.9381e-02  7.6295e-01  3.5411e-02  3.9361e-03  3.5001e-03  0:01:25 1885
   116  3.6603e-02  1.3088e-02  2.9027e-02  7.4443e-01  3.6584e-02  3.9337e-03  3.5176e-03  0:01:08 1884
   117  3.6933e-02  1.2663e-02  2.9344e-02  7.2529e-01  3.6914e-02  3.9366e-03  3.5118e-03  0:00:54 1883
   118  3.6082e-02  1.2335e-02  2.9586e-02  7.0172e-01  3.6063e-02  3.9127e-03  3.4728e-03  0:00:43 1882
   119  3.4283e-02  1.1986e-02  2.9967e-02  6.9294e-01  3.4265e-02  3.9163e-03  3.4685e-03  0:00:35 1881
   120  3.2387e-02  1.1738e-02  3.0614e-02  6.8629e-01  3.2369e-02  3.8678e-03  3.4605e-03  0:06:44 1880
   121  3.0185e-02  1.1585e-02  3.0876e-02  6.7843e-01  3.0167e-02  3.8311e-03  3.4837e-03  0:05:23 1879

  iter  continuity  x-velocity  y-velocity  z-velocity      energy           k       omega     time/iter
   122  2.9382e-02  1.1483e-02  3.0830e-02  6.6647e-01  2.9365e-02  3.7676e-03  3.4683e-03  0:04:18 1878
   123  2.8515e-02  1.1299e-02  2.9730e-02  6.4284e-01  2.8498e-02  3.7494e-03  3.4546e-03  0:03:26 1877
   124  2.8603e-02  1.1270e-02  2.8435e-02  6.2177e-01  2.8587e-02  3.6604e-03  3.4158e-03  0:02:45 1876
   125  2.8591e-02  1.1107e-02  2.7133e-02  6.0070e-01  2.8575e-02  3.5851e-03  3.3531e-03  0:02:12 1875
   126  2.9229e-02  1.1113e-02  2.5444e-02  5.7755e-01  2.9213e-02  3.5039e-03  3.2924e-03  0:01:46 1874
   127  2.9706e-02  1.0993e-02  2.4112e-02  5.5627e-01  2.9689e-02  3.4704e-03  3.2215e-03  0:01:24 1873
   128  2.9979e-02  1.0972e-02  2.3313e-02  5.4118e-01  2.9961e-02  3.4181e-03  3.1592e-03  0:01:07 1872
   129  2.9457e-02  1.0965e-02  2.2450e-02  5.2675e-01  2.9440e-02  3.3712e-03  3.1100e-03  0:00:54 1871
   130  2.8016e-02  1.1027e-02  2.1966e-02  5.1414e-01  2.7999e-02  3.3269e-03  3.0634e-03  0:00:43 1870
   131  2.5919e-02  1.1049e-02  2.1756e-02  5.0413e-01  2.5902e-02  3.2913e-03  3.0004e-03  0:00:34 1869
   132  2.3711e-02  1.1136e-02  2.1550e-02  5.0348e-01  2.3695e-02  3.2658e-03  2.9923e-03  0:00:28 1868

  iter  continuity  x-velocity  y-velocity  z-velocity      energy           k       omega     time/iter
   133  2.2543e-02  1.1243e-02  2.1195e-02  5.0741e-01  2.2528e-02  3.2494e-03  2.9752e-03  0:06:35 1867
   134  2.2581e-02  1.1257e-02  2.0813e-02  5.1474e-01  2.2566e-02  3.2385e-03  2.9588e-03  0:05:16 1866
   135  2.3919e-02  1.1098e-02  2.0457e-02  5.2251e-01  2.3904e-02  3.2004e-03  2.9323e-03  0:04:13 1865
   136  2.5375e-02  1.0950e-02  2.0173e-02  5.3276e-01  2.5360e-02  3.1910e-03  2.9285e-03  0:03:22 1864
   137  2.6656e-02  1.0764e-02  1.9867e-02  5.4885e-01  2.6641e-02  3.1800e-03  2.9109e-03  0:02:42 1863
   138  2.7974e-02  1.0448e-02  1.9526e-02  5.6887e-01  2.7958e-02  3.1847e-03  2.9138e-03  0:02:09 1862
   139  2.8844e-02  1.0136e-02  1.9447e-02  7.1584e-01  2.8826e-02  3.1441e-03  2.8760e-03  0:01:43 1861
   140  2.9187e-02  9.8811e-03  1.9383e-02  6.1862e-01  2.9170e-02  3.1654e-03  2.8652e-03  0:01:23 1860
   141  2.8901e-02  9.5404e-03  1.9406e-02  6.2920e-01  2.8884e-02  3.1452e-03  2.8395e-03  0:01:06 1859
   142  2.7766e-02  9.2755e-03  1.9860e-02  6.6356e-01  2.7748e-02  3.1319e-03  2.7959e-03  0:00:53 1858
   143  2.6470e-02  9.0312e-03  2.0126e-02  6.5712e-01  2.6453e-02  3.1311e-03  2.7780e-03  0:00:42 1857

  iter  continuity  x-velocity  y-velocity  z-velocity      energy           k       omega     time/iter
   144  2.4771e-02  8.7951e-03  2.0178e-02  6.2322e-01  2.4755e-02  3.0957e-03  2.7398e-03  0:00:34 1856
   145  2.4356e-02  8.6386e-03  2.0203e-02  6.0478e-01  2.4339e-02  3.0886e-03  2.7470e-03  0:06:38 1855
   146  2.3866e-02  8.4768e-03  1.9959e-02  5.8769e-01  2.3849e-02  3.0461e-03  2.7224e-03  0:05:18 1854
   147  2.4387e-02  8.3866e-03  1.9523e-02  5.8207e-01  2.4371e-02  3.0002e-03  2.7258e-03  0:04:14 1853
   148  2.4713e-02  8.2266e-03  1.8917e-02  5.6892e-01  2.4696e-02  2.9494e-03  2.6999e-03  0:03:23 1852
   149  2.5067e-02  8.0023e-03  1.8128e-02  5.5848e-01  2.5050e-02  2.8983e-03  2.6311e-03  0:02:43 1851
   150  2.5305e-02  7.8789e-03  1.7384e-02  5.4362e-01  2.5288e-02  2.8677e-03  2.5705e-03  0:02:10 1850
   151  2.5294e-02  7.6894e-03  1.6814e-02  5.2808e-01  2.5277e-02  2.8264e-03  2.5153e-03  0:01:44 1849
   152  2.5049e-02  7.5829e-03  1.6254e-02  5.1137e-01  2.5031e-02  2.7746e-03  2.4640e-03  0:01:23 1848
   153  2.3692e-02  7.4722e-03  1.5980e-02  4.9734e-01  2.3675e-02  2.6967e-03  2.4074e-03  0:01:06 1847
   154  2.1827e-02  7.5335e-03  1.5787e-02  4.8262e-01  2.1810e-02  2.6738e-03  2.3471e-03  0:00:53 1846

  iter  continuity  x-velocity  y-velocity  z-velocity      energy           k       omega     time/iter
   155  1.9763e-02  7.5390e-03  1.5532e-02  4.7194e-01  1.9747e-02  2.6511e-03  2.3044e-03  0:00:43 1845
   156  1.8594e-02  7.5071e-03  1.5385e-02  4.6706e-01  1.8579e-02  2.6238e-03  2.2603e-03  0:00:34 1844
   157  1.8452e-02  7.5216e-03  1.5327e-02  4.6599e-01  1.8437e-02  2.6064e-03  2.2401e-03  0:06:36 1843
   158  1.9056e-02  7.5411e-03  1.5121e-02  4.7080e-01  1.9042e-02  2.5944e-03  2.2009e-03  0:05:16 1842
   159  2.0431e-02  7.4567e-03  1.4943e-02  4.7456e-01  2.0415e-02  2.5833e-03  2.1813e-03  0:04:13 1841
   160  2.1957e-02  7.3817e-03  1.4851e-02  4.7718e-01  2.1941e-02  2.5822e-03  2.1878e-03  0:03:22 1840
   161  2.3279e-02  7.2923e-03  1.4793e-02  4.8443e-01  2.3262e-02  2.5891e-03  2.1675e-03  0:02:42 1839
   162  2.4368e-02  7.2384e-03  1.4769e-02  4.9340e-01  2.4351e-02  2.5937e-03  2.1618e-03  0:02:09 1838
   163  2.4486e-02  7.1519e-03  1.4751e-02  4.9872e-01  2.4469e-02  2.6102e-03  2.1627e-03  0:01:43 1837
   164  2.4556e-02  7.0897e-03  1.4991e-02  5.0508e-01  2.4539e-02  2.6077e-03  2.1539e-03  0:01:23 1836
   165  2.3991e-02  7.0002e-03  1.5212e-02  5.0592e-01  2.3974e-02  2.6233e-03  2.1570e-03  0:01:06 1835

  iter  continuity  x-velocity  y-velocity  z-velocity      energy           k       omega     time/iter
   166  2.2785e-02  6.9898e-03  1.5214e-02  4.9942e-01  2.2769e-02  2.6471e-03  2.1466e-03  0:00:53 1834
   167  2.1853e-02  6.9861e-03  1.5340e-02  4.9764e-01  2.1838e-02  2.6372e-03  2.1627e-03  0:00:42 1833
   168  2.0936e-02  6.8988e-03  1.5213e-02  4.8825e-01  2.0921e-02  2.6324e-03  2.1395e-03  0:00:34 1832
   169  2.0757e-02  6.8422e-03  1.4945e-02  4.7726e-01  2.0743e-02  2.6158e-03  2.1355e-03  0:00:27 1831
   170  2.0775e-02  6.8298e-03  1.4648e-02  4.5713e-01  2.0761e-02  2.6199e-03  2.1155e-03  0:06:28 1830
   171  2.1124e-02  6.8013e-03  1.4122e-02  4.3902e-01  2.1109e-02  2.5899e-03  2.0702e-03  0:05:10 1829
   172  2.2087e-02  6.7663e-03  1.3696e-02  4.2453e-01  2.2072e-02  2.5905e-03  2.0478e-03  0:04:08 1828
   173  2.2953e-02  6.7637e-03  1.3495e-02  4.1436e-01  2.2937e-02  2.5401e-03  1.9889e-03  0:03:18 1827
   174  2.3508e-02  6.8673e-03  1.3233e-02  4.0802e-01  2.3492e-02  2.5362e-03  1.9745e-03  0:02:38 1826
   175  2.3521e-02  6.9823e-03  1.3192e-02  4.0136e-01  2.3505e-02  2.5153e-03  1.9442e-03  0:02:07 1825
   176  2.3100e-02  7.1118e-03  1.3364e-02  3.9540e-01  2.3085e-02  2.4662e-03  1.9009e-03  0:01:41 1824

  iter  continuity  x-velocity  y-velocity  z-velocity      energy           k       omega     time/iter
   177  2.2179e-02  7.2397e-03  1.3591e-02  3.9177e-01  2.2164e-02  2.4629e-03  1.8909e-03  0:01:21 1823
   178  2.1036e-02  7.4283e-03  1.3854e-02  3.9440e-01  2.1022e-02  2.4655e-03  1.8732e-03  0:01:05 1822
   179  2.0108e-02  7.5964e-03  1.4111e-02  3.9878e-01  2.0095e-02  2.4551e-03  1.8584e-03  0:00:52 1821
   180  1.9504e-02  7.6745e-03  1.4335e-02  4.0488e-01  1.9491e-02  2.4481e-03  1.8459e-03  0:00:41 1820
   181  1.9707e-02  7.7847e-03  1.4565e-02  4.1609e-01  1.9694e-02  2.4279e-03  1.8554e-03  0:00:33 1819
   182  2.0578e-02  7.7189e-03  1.4692e-02  4.3893e-01  2.0565e-02  2.4326e-03  1.8671e-03  0:06:30 1818
   183  2.1679e-02  7.6173e-03  1.4841e-02  4.5656e-01  2.1665e-02  2.4359e-03  1.8541e-03  0:05:12 1817
   184  2.3320e-02  7.5109e-03  1.5003e-02  4.7981e-01  2.3306e-02  2.4369e-03  1.8450e-03  0:04:09 1816
   185  2.5028e-02  7.4378e-03  1.5195e-02  5.1193e-01  2.5013e-02  2.4586e-03  1.8620e-03  0:03:19 1815
   186  2.6562e-02  7.2848e-03  1.5552e-02  5.3871e-01  2.6546e-02  2.4659e-03  1.8651e-03  0:02:39 1814
   187  2.7358e-02  7.2205e-03  1.6012e-02  5.6838e-01  2.7342e-02  2.4727e-03  1.8664e-03  0:02:07 1813

  iter  continuity  x-velocity  y-velocity  z-velocity      energy           k       omega     time/iter
   188  2.8198e-02  7.3109e-03  1.6673e-02  5.9937e-01  2.8182e-02  2.4735e-03  1.8579e-03  0:01:42 1812
   189  2.8435e-02  7.4488e-03  1.7298e-02  6.0605e-01  2.8419e-02  2.5201e-03  1.8834e-03  0:01:21 1811
   190  2.8296e-02  7.6932e-03  1.8010e-02  6.1760e-01  2.8279e-02  2.5231e-03  1.8627e-03  0:01:05 1810
   191  2.7870e-02  7.8792e-03  1.8860e-02  6.2930e-01  2.7854e-02  2.5444e-03  1.8664e-03  0:00:52 1809
   192  2.6677e-02  8.0896e-03  1.9494e-02  6.3373e-01  2.6662e-02  2.5273e-03  1.8655e-03  0:00:42 1808
   193  2.5466e-02  8.4564e-03  2.0127e-02  6.1811e-01  2.5452e-02  2.5330e-03  1.8748e-03  0:00:33 1807
   194  2.4171e-02  8.5877e-03  2.0476e-02  6.0025e-01  2.4157e-02  2.5085e-03  1.8949e-03  0:06:28 1806
   195  2.2870e-02  8.6577e-03  2.0535e-02  5.8504e-01  2.2857e-02  2.5021e-03  1.8691e-03  0:05:10 1805
   196  2.2079e-02  8.6509e-03  2.0600e-02  5.7630e-01  2.2067e-02  2.5092e-03  1.8789e-03  0:04:08 1804
   197  2.1597e-02  8.4561e-03  2.0228e-02  5.6994e-01  2.1584e-02  2.4808e-03  1.8832e-03  0:03:18 1803
   198  2.1489e-02  8.1742e-03  1.9789e-02  5.5110e-01  2.1476e-02  2.4519e-03  1.8569e-03  0:02:39 1802

  iter  continuity  x-velocity  y-velocity  z-velocity      energy           k       omega     time/iter
   199  2.1972e-02  7.9165e-03  1.9537e-02  5.4333e-01  2.1959e-02  2.4169e-03  1.8508e-03  0:02:07 1801
   200  2.2394e-02  7.6376e-03  1.9139e-02  5.3741e-01  2.2380e-02  2.3763e-03  1.8360e-03  0:01:41 1800
   201  2.3417e-02  7.4425e-03  1.8868e-02  5.3391e-01  2.3403e-02  2.3402e-03  1.7769e-03  0:01:21 1799
   202  2.4318e-02  7.4396e-03  1.8916e-02  5.3796e-01  2.4302e-02  2.3243e-03  1.7533e-03  0:01:05 1798
   203  2.5096e-02  7.5148e-03  1.9227e-02  5.4593e-01  2.5081e-02  2.3038e-03  1.7227e-03  0:00:52 1797
   204  2.5487e-02  7.8573e-03  1.9554e-02  5.5458e-01  2.5471e-02  2.2978e-03  1.7088e-03  0:00:41 1796
   205  2.5190e-02  8.2483e-03  2.0018e-02  5.7456e-01  2.5175e-02  2.2848e-03  1.6825e-03  0:00:33 1795
   206  2.4237e-02  8.7028e-03  2.0490e-02  5.9286e-01  2.4222e-02  2.2829e-03  1.6720e-03  0:00:26 1794
   207  2.2982e-02  9.1489e-03  2.1044e-02  6.1646e-01  2.2967e-02  2.2982e-03  1.6727e-03  0:06:20 1793
   208  2.1828e-02  9.5872e-03  2.1555e-02  6.4142e-01  2.1813e-02  2.3067e-03  1.6938e-03  0:05:04 1792
   209  2.1208e-02  9.9671e-03  2.1813e-02  6.6264e-01  2.1194e-02  2.2915e-03  1.6899e-03  0:04:03 1791

  iter  continuity  x-velocity  y-velocity  z-velocity      energy           k       omega     time/iter
   210  2.1117e-02  1.0222e-02  2.1809e-02  6.8653e-01  2.1104e-02  2.3162e-03  1.7134e-03  0:03:14 1790
   211  2.1886e-02  1.0267e-02  2.1694e-02  7.0877e-01  2.1873e-02  2.3350e-03  1.7427e-03  0:02:35 1789
   212  2.3227e-02  1.0162e-02  2.1415e-02  7.2711e-01  2.3213e-02  2.3457e-03  1.7535e-03  0:02:04 1788
   213  2.5133e-02  9.9981e-03  2.1074e-02  7.4491e-01  2.5118e-02  2.3692e-03  1.7855e-03  0:01:39 1787
   214  2.6851e-02  9.7358e-03  2.0887e-02  7.7487e-01  2.6836e-02  2.3981e-03  1.8023e-03  0:01:19 1786
   215  2.8699e-02  9.4768e-03  2.0602e-02  8.2642e-01  2.8684e-02  2.4605e-03  1.8165e-03  0:01:03 1785
   216  3.0055e-02  9.1428e-03  2.0576e-02  8.6145e-01  3.0040e-02  2.4335e-03  1.8222e-03  0:00:51 1784
   217  3.1138e-02  8.9215e-03  2.0902e-02  8.6443e-01  3.1122e-02  2.4700e-03  1.8086e-03  0:00:41 1783
   218  3.1143e-02  8.7695e-03  2.1274e-02  8.7784e-01  3.1128e-02  2.4876e-03  1.8142e-03  0:00:32 1782
   219  2.9781e-02  8.6124e-03  2.1859e-02  8.7950e-01  2.9766e-02  2.4788e-03  1.7908e-03  0:06:22 1781
   220  2.7834e-02  8.5086e-03  2.2394e-02  8.8465e-01  2.7819e-02  2.4958e-03  1.8122e-03  0:05:06 1780

  iter  continuity  x-velocity  y-velocity  z-velocity      energy           k       omega     time/iter
   221  2.5365e-02  8.4226e-03  2.2823e-02  8.9482e-01  2.5351e-02  2.4839e-03  1.8061e-03  0:04:04 1779
   222  2.3729e-02  8.3920e-03  2.2965e-02  9.0376e-01  2.3716e-02  2.4655e-03  1.8317e-03  0:03:15 1778
   223  2.3353e-02  8.3451e-03  2.2955e-02  8.9350e-01  2.3340e-02  2.4611e-03  1.8459e-03  0:02:36 1777
   224  2.3442e-02  8.2193e-03  2.2506e-02  8.7060e-01  2.3429e-02  2.4432e-03  1.8423e-03  0:02:05 1776
   225  2.3801e-02  8.1664e-03  2.1870e-02  8.4296e-01  2.3789e-02  2.4073e-03  1.8456e-03  0:01:40 1775
   226  2.4340e-02  8.0622e-03  2.1385e-02  8.1121e-01  2.4328e-02  2.3901e-03  1.8431e-03  0:01:20 1774
   227  2.4981e-02  8.0426e-03  2.0710e-02  7.8869e-01  2.4969e-02  2.3539e-03  1.8139e-03  0:01:04 1773
   228  2.5580e-02  8.0858e-03  1.9929e-02  7.6229e-01  2.5567e-02  2.3134e-03  1.7885e-03  0:00:51 1772
   229  2.5947e-02  8.0302e-03  1.9556e-02  7.4639e-01  2.5933e-02  2.2767e-03  1.7466e-03  0:00:41 1771
   230  2.5804e-02  8.1185e-03  1.9314e-02  7.2584e-01  2.5790e-02  2.2596e-03  1.7078e-03  0:00:33 1770
   231  2.4743e-02  8.1821e-03  1.9033e-02  7.1442e-01  2.4729e-02  2.2508e-03  1.6922e-03  0:06:20 1769

  iter  continuity  x-velocity  y-velocity  z-velocity      energy           k       omega     time/iter
   232  2.2962e-02  8.2230e-03  1.8922e-02  7.0727e-01  2.2948e-02  2.2136e-03  1.6905e-03  0:05:04 1768
   233  2.0945e-02  8.2978e-03  1.8852e-02  7.0059e-01  2.0932e-02  2.1760e-03  1.6741e-03  0:04:03 1767
   234  1.9485e-02  8.4059e-03  1.8600e-02  6.9974e-01  1.9473e-02  2.1483e-03  1.6740e-03  0:03:14 1766
   235  1.9228e-02  8.4883e-03  1.8213e-02  6.9937e-01  1.9217e-02  2.1640e-03  1.6784e-03  0:02:35 1765
   236  2.0243e-02  8.4340e-03  1.7845e-02  6.9894e-01  2.0231e-02  2.1593e-03  1.6828e-03  0:02:04 1764
   237  2.1621e-02  8.2879e-03  1.7285e-02  6.9425e-01  2.1609e-02  2.1625e-03  1.6984e-03  0:01:39 1763
   238  2.3001e-02  8.1589e-03  1.6864e-02  6.9379e-01  2.2989e-02  2.1696e-03  1.7018e-03  0:01:19 1762
   239  2.4398e-02  7.9276e-03  1.6470e-02  6.8685e-01  2.4385e-02  2.1654e-03  1.6846e-03  0:01:03 1761
   240  2.5282e-02  7.6751e-03  1.6036e-02  6.8721e-01  2.5269e-02  2.1661e-03  1.6953e-03  0:00:51 1760
   241  2.5738e-02  7.4111e-03  1.5843e-02  6.9363e-01  2.5725e-02  2.1775e-03  1.6923e-03  0:06:32 1759
   242  2.5388e-02  7.2114e-03  1.5715e-02  6.9561e-01  2.5375e-02  2.1745e-03  1.6695e-03  0:05:14 1758

  iter  continuity  x-velocity  y-velocity  z-velocity      energy           k       omega     time/iter
   243  2.3900e-02  7.0034e-03  1.5720e-02  6.8655e-01  2.3887e-02  2.1580e-03  1.6543e-03  0:04:11 1757
   244  2.2172e-02  6.8261e-03  1.5805e-02  6.8650e-01  2.2160e-02  2.1473e-03  1.6374e-03  0:03:21 1756
   245  1.9880e-02  6.6690e-03  1.5745e-02  6.7266e-01  1.9869e-02  2.1298e-03  1.6495e-03  0:02:40 1755
   246  1.8466e-02  6.5322e-03  1.5544e-02  6.6654e-01  1.8455e-02  2.0997e-03  1.6463e-03  0:02:08 1754
   247  1.8075e-02  6.4207e-03  1.5207e-02  6.4824e-01  1.8064e-02  2.0825e-03  1.6394e-03  0:01:43 1753
   248  1.8347e-02  6.2891e-03  1.4742e-02  6.3822e-01  1.8337e-02  2.0612e-03  1.6191e-03  0:01:22 1752
   249  1.8827e-02  6.1625e-03  1.4226e-02  6.2521e-01  1.8817e-02  2.0236e-03  1.6126e-03  0:01:06 1751
   250  1.9110e-02  6.0283e-03  1.3759e-02  6.0361e-01  1.9100e-02  1.9929e-03  1.5864e-03  0:00:52 1750
   251  1.9573e-02  5.8903e-03  1.3220e-02  5.8335e-01  1.9563e-02  1.9514e-03  1.5301e-03  0:00:42 1749
   252  2.0027e-02  5.8487e-03  1.2810e-02  5.6468e-01  2.0017e-02  1.9276e-03  1.4922e-03  0:00:33 1748
   253  2.0023e-02  5.7535e-03  1.2393e-02  5.4935e-01  2.0012e-02  1.8897e-03  1.4645e-03  0:00:27 1747

  iter  continuity  x-velocity  y-velocity  z-velocity      energy           k       omega     time/iter
   254  1.9758e-02  5.6887e-03  1.2090e-02  5.3506e-01  1.9747e-02  1.8348e-03  1.4208e-03  0:06:11 1746
   255  1.8756e-02  5.6576e-03  1.1956e-02  5.2376e-01  1.8745e-02  1.8002e-03  1.3874e-03  0:04:56 1745
   256  1.7407e-02  5.7171e-03  1.1829e-02  5.1692e-01  1.7397e-02  1.7773e-03  1.3715e-03  0:03:57 1744
   257  1.6172e-02  5.7883e-03  1.1642e-02  5.1323e-01  1.6162e-02  1.7526e-03  1.3466e-03  0:03:09 1743
   258  1.5647e-02  5.7862e-03  1.1457e-02  5.1228e-01  1.5637e-02  1.7308e-03  1.3392e-03  0:02:31 1742
   259  1.5806e-02  5.7590e-03  1.1268e-02  5.1431e-01  1.5797e-02  1.7117e-03  1.3360e-03  0:02:01 1741
   260  1.6415e-02  5.7562e-03  1.0986e-02  5.1611e-01  1.6405e-02  1.6979e-03  1.3237e-03  0:01:37 1740
   261  1.7226e-02  5.6766e-03  1.0748e-02  5.2447e-01  1.7216e-02  1.6871e-03  1.3116e-03  0:01:17 1739
   262  1.8250e-02  5.5257e-03  1.0513e-02  5.2382e-01  1.8240e-02  1.6765e-03  1.3146e-03  0:01:02 1738
   263  1.8996e-02  5.3906e-03  1.0301e-02  5.2842e-01  1.8986e-02  1.6836e-03  1.3056e-03  0:00:49 1737
   264  1.9486e-02  5.2147e-03  1.0165e-02  5.3466e-01  1.9476e-02  1.6805e-03  1.2993e-03  0:00:40 1736

  iter  continuity  x-velocity  y-velocity  z-velocity      energy           k       omega     time/iter
   265  1.9289e-02  5.0469e-03  1.0042e-02  5.3853e-01  1.9279e-02  1.6723e-03  1.2795e-03  0:00:32 1735
   266  1.8707e-02  4.9052e-03  1.0143e-02  5.5286e-01  1.8697e-02  1.6622e-03  1.2758e-03  0:06:12 1734
   267  1.7581e-02  4.7784e-03  1.0251e-02  5.5455e-01  1.7571e-02  1.6558e-03  1.2599e-03  0:04:58 1733
   268  1.6117e-02  4.6749e-03  1.0206e-02  5.5456e-01  1.6109e-02  1.6470e-03  1.2540e-03  0:03:58 1732
   269  1.5196e-02  4.5945e-03  1.0159e-02  5.5395e-01  1.5188e-02  1.6275e-03  1.2567e-03  0:03:10 1731
   270  1.4776e-02  4.5013e-03  1.0039e-02  5.4478e-01  1.4768e-02  1.6040e-03  1.2328e-03  0:02:32 1730
   271  1.4848e-02  4.4506e-03  9.8994e-03  5.4339e-01  1.4841e-02  1.5953e-03  1.2439e-03  0:02:02 1729
   272  1.5193e-02  4.3854e-03  9.6823e-03  5.3915e-01  1.5185e-02  1.5720e-03  1.2274e-03  0:01:37 1728
   273  1.5707e-02  4.3528e-03  9.4366e-03  5.3348e-01  1.5700e-02  1.5439e-03  1.2125e-03  0:01:18 1727
   274  1.5933e-02  4.2900e-03  9.1720e-03  5.3119e-01  1.5926e-02  1.4975e-03  1.1850e-03  0:01:02 1726
   275  1.5935e-02  4.2070e-03  8.9492e-03  5.2794e-01  1.5928e-02  1.4857e-03  1.1536e-03  0:00:50 1725

  iter  continuity  x-velocity  y-velocity  z-velocity      energy           k       omega     time/iter
   276  1.5691e-02  4.1653e-03  8.8279e-03  5.1776e-01  1.5683e-02  1.4744e-03  1.1388e-03  0:00:40 1724
   277  1.4972e-02  4.1781e-03  8.7217e-03  5.0551e-01  1.4965e-02  1.4485e-03  1.1201e-03  0:00:32 1723
   278  1.3926e-02  4.2378e-03  8.5996e-03  5.0050e-01  1.3919e-02  1.4200e-03  1.1044e-03  0:06:10 1722
   279  1.3160e-02  4.2649e-03  8.5595e-03  4.9536e-01  1.3154e-02  1.3890e-03  1.0969e-03  0:04:56 1721
   280  1.2546e-02  4.2975e-03  8.4758e-03  4.9834e-01  1.2540e-02  1.3767e-03  1.0802e-03  0:03:56 1720
   281  1.2240e-02  4.3601e-03  8.3979e-03  5.0506e-01  1.2234e-02  1.3542e-03  1.0763e-03  0:03:09 1719
   282  1.2589e-02  4.4053e-03  8.2856e-03  5.1619e-01  1.2583e-02  1.3449e-03  1.0686e-03  0:02:31 1718
   283  1.3331e-02  4.3741e-03  8.1587e-03  5.3465e-01  1.3325e-02  1.3412e-03  1.0767e-03  0:02:01 1717
   284  1.4377e-02  4.3146e-03  8.0157e-03  5.4818e-01  1.4371e-02  1.3382e-03  1.0742e-03  0:01:37 1716
   285  1.5488e-02  4.2659e-03  7.9470e-03  5.6482e-01  1.5481e-02  1.3392e-03  1.0706e-03  0:01:17 1715
   286  1.5985e-02  4.2036e-03  7.9049e-03  5.7832e-01  1.5978e-02  1.3400e-03  1.0653e-03  0:01:02 1714

  iter  continuity  x-velocity  y-velocity  z-velocity      energy           k       omega     time/iter
   287  1.5923e-02  4.1196e-03  7.9800e-03  5.8099e-01  1.5916e-02  1.3485e-03  1.0634e-03  0:00:49 1713
   288  1.5578e-02  4.0578e-03  8.0630e-03  5.8670e-01  1.5571e-02  1.3304e-03  1.0551e-03  0:00:39 1712
   289  1.4779e-02  4.0310e-03  8.1756e-03  5.7846e-01  1.4772e-02  1.3481e-03  1.0614e-03  0:00:32 1711
   290  1.3790e-02  4.0193e-03  8.2964e-03  5.8067e-01  1.3784e-02  1.3499e-03  1.0643e-03  0:00:25 1710
   291  1.2840e-02  3.9661e-03  8.3800e-03  5.9299e-01  1.2834e-02  1.3443e-03  1.0685e-03  0:06:02 1709
   292  1.2375e-02  3.9417e-03  8.3277e-03  6.0042e-01  1.2371e-02  1.3412e-03  1.0589e-03  0:04:49 1708
   293  1.2053e-02  3.9448e-03  8.3057e-03  6.1099e-01  1.2048e-02  1.3375e-03  1.0599e-03  0:03:51 1707
   294  1.2201e-02  3.9239e-03  8.2006e-03  6.1872e-01  1.2196e-02  1.3354e-03  1.0595e-03  0:03:05 1706
   295  1.2786e-02  3.9175e-03  8.0638e-03  6.0960e-01  1.2782e-02  1.3212e-03  1.0455e-03  0:02:28 1705
   296  1.3339e-02  3.9190e-03  7.9033e-03  6.0293e-01  1.3334e-02  1.3083e-03  1.0382e-03  0:01:58 1704
   297  1.3707e-02  3.8937e-03  7.7864e-03  5.9397e-01  1.3702e-02  1.3043e-03  1.0202e-03  0:01:35 1703

  iter  continuity  x-velocity  y-velocity  z-velocity      energy           k       omega     time/iter
   298  1.3983e-02  3.8812e-03  7.7439e-03  5.8250e-01  1.3978e-02  1.2925e-03  1.0102e-03  0:01:16 1702
   299  1.3890e-02  3.9163e-03  7.8067e-03  5.6826e-01  1.3885e-02  1.2776e-03  1.0055e-03  0:01:00 1701
   300  1.3428e-02  4.0234e-03  7.9230e-03  5.6555e-01  1.3423e-02  1.2625e-03  9.8824e-04  0:00:48 1700
   301  1.2804e-02  4.1531e-03  7.9992e-03  5.6497e-01  1.2799e-02  1.2600e-03  9.9288e-04  0:00:39 1699
   302  1.2182e-02  4.2784e-03  8.0826e-03  5.6828e-01  1.2178e-02  1.2591e-03  9.9021e-04  0:06:10 1698
   303  1.1969e-02  4.3604e-03  8.1934e-03  5.7253e-01  1.1965e-02  1.2601e-03  9.9759e-04  0:04:56 1697
   304  1.1740e-02  4.4383e-03  8.2606e-03  5.8479e-01  1.1735e-02  1.2548e-03  1.0038e-03  0:03:57 1696
   305  1.2291e-02  4.5149e-03  8.2976e-03  5.9231e-01  1.2286e-02  1.2608e-03  1.0101e-03  0:03:09 1695
   306  1.3098e-02  4.5388e-03  8.3305e-03  6.0927e-01  1.3094e-02  1.2641e-03  1.0235e-03  0:02:31 1694
   307  1.4134e-02  4.5228e-03  8.2985e-03  6.3270e-01  1.4130e-02  1.2680e-03  1.0302e-03  0:02:01 1693
   308  1.5217e-02  4.4738e-03  8.3302e-03  6.5190e-01  1.5211e-02  1.2956e-03  1.0419e-03  0:01:37 1692

  iter  continuity  x-velocity  y-velocity  z-velocity      energy           k       omega     time/iter
   309  1.6354e-02  4.4591e-03  8.3764e-03  6.7873e-01  1.6349e-02  1.3064e-03  1.0555e-03  0:01:17 1691
   310  1.6926e-02  4.4122e-03  8.5617e-03  7.0565e-01  1.6920e-02  1.3224e-03  1.0520e-03  0:01:02 1690
   311  1.7174e-02  4.3948e-03  8.9050e-03  7.0994e-01  1.7169e-02  1.3475e-03  1.0595e-03  0:00:49 1689
   312  1.7089e-02  4.4258e-03  9.2039e-03  7.1218e-01  1.7083e-02  1.3512e-03  1.0682e-03  0:00:40 1688
   313  1.6705e-02  4.4854e-03  9.5791e-03  7.0687e-01  1.6701e-02  1.3744e-03  1.0708e-03  0:00:32 1687
   314  1.6017e-02  4.5958e-03  9.9466e-03  7.2784e-01  1.6013e-02  1.3898e-03  1.0702e-03  0:00:25 1686
   315  1.5215e-02  4.6800e-03  1.0198e-02  7.5048e-01  1.5211e-02  1.3937e-03  1.0862e-03  0:05:57 1685
   316  1.4500e-02  4.7468e-03  1.0379e-02  7.5875e-01  1.4496e-02  1.3970e-03  1.0970e-03  0:04:46 1684
   317  1.4123e-02  4.8138e-03  1.0428e-02  7.7100e-01  1.4120e-02  1.3998e-03  1.0882e-03  0:03:48 1683
   318  1.4276e-02  4.8462e-03  1.0463e-02  7.6707e-01  1.4273e-02  1.4092e-03  1.1000e-03  0:03:03 1682
   319  1.4653e-02  4.8336e-03  1.0358e-02  7.5528e-01  1.4650e-02  1.3942e-03  1.0935e-03  0:02:26 1681

  iter  continuity  x-velocity  y-velocity  z-velocity      energy           k       omega     time/iter
   320  1.5372e-02  4.8103e-03  1.0226e-02  7.5628e-01  1.5369e-02  1.4099e-03  1.0959e-03  0:01:57 1680
   321  1.6118e-02  4.7797e-03  1.0146e-02  7.5208e-01  1.6114e-02  1.4054e-03  1.0783e-03  0:01:33 1679
   322  1.6800e-02  4.7775e-03  1.0118e-02  7.4174e-01  1.6796e-02  1.3808e-03  1.0706e-03  0:01:15 1678
   323  1.7146e-02  4.7834e-03  1.0109e-02  7.3403e-01  1.7141e-02  1.3723e-03  1.0527e-03  0:01:00 1677
   324  1.7337e-02  4.8524e-03  1.0389e-02  7.2874e-01  1.7332e-02  1.3801e-03  1.0379e-03  0:00:48 1676
   325  1.6924e-02  4.9924e-03  1.0713e-02  7.2317e-01  1.6919e-02  1.3769e-03  1.0428e-03  0:00:38 1675
   326  1.6080e-02  5.2257e-03  1.1016e-02  7.2681e-01  1.6075e-02  1.3642e-03  1.0385e-03  0:00:30 1674
   327  1.5219e-02  5.4734e-03  1.1270e-02  7.3048e-01  1.5214e-02  1.3646e-03  1.0456e-03  0:05:59 1673
   328  1.4468e-02  5.6973e-03  1.1514e-02  7.3448e-01  1.4464e-02  1.3695e-03  1.0461e-03  0:04:47 1672
   329  1.4185e-02  5.8497e-03  1.1707e-02  7.3939e-01  1.4181e-02  1.3734e-03  1.0592e-03  0:03:49 1671
   330  1.4669e-02  5.9582e-03  1.1804e-02  7.5047e-01  1.4665e-02  1.3834e-03  1.0887e-03  0:03:03 1670

  iter  continuity  x-velocity  y-velocity  z-velocity      energy           k       omega     time/iter
   331  1.5591e-02  6.0412e-03  1.1806e-02  7.6151e-01  1.5587e-02  1.4017e-03  1.1148e-03  0:02:27 1669
   332  1.6578e-02  6.0236e-03  1.1854e-02  7.9043e-01  1.6575e-02  1.4202e-03  1.1136e-03  0:01:57 1668
   333  1.7987e-02  5.9837e-03  1.1807e-02  8.1260e-01  1.7983e-02  1.4467e-03  1.1406e-03  0:01:34 1667
   334  1.9183e-02  5.8872e-03  1.1889e-02  8.3882e-01  1.9180e-02  1.4818e-03  1.1515e-03  0:01:15 1666
   335  2.0287e-02  5.8188e-03  1.2019e-02  8.6869e-01  2.0283e-02  1.4982e-03  1.1619e-03  0:01:00 1665
   336  2.1050e-02  5.7636e-03  1.2238e-02  8.9381e-01  2.1046e-02  1.5194e-03  1.1624e-03  0:00:48 1664
   337  2.1081e-02  5.7564e-03  1.2698e-02  9.0892e-01  2.1077e-02  1.5657e-03  1.1887e-03  0:00:38 1663
   338  2.0991e-02  5.7941e-03  1.3274e-02  9.3466e-01  2.0987e-02  1.5671e-03  1.1928e-03  0:00:31 1662
   339  2.0182e-02  5.8966e-03  1.3811e-02  9.5368e-01  2.0179e-02  1.5768e-03  1.2078e-03  0:05:57 1661
   340  1.9245e-02  6.0345e-03  1.4239e-02  9.6457e-01  1.9242e-02  1.5881e-03  1.2067e-03  0:04:45 1660
   341  1.8299e-02  6.0947e-03  1.4636e-02  9.7581e-01  1.8296e-02  1.6098e-03  1.2244e-03  0:03:48 1659

  iter  continuity  x-velocity  y-velocity  z-velocity      energy           k       omega     time/iter
   342  1.7593e-02  6.1454e-03  1.4855e-02  9.8111e-01  1.7590e-02  1.6101e-03  1.2356e-03  0:03:02 1658
   343  1.7270e-02  6.1583e-03  1.4858e-02  9.8441e-01  1.7268e-02  1.6098e-03  1.2482e-03  0:02:26 1657
   344  1.7414e-02  6.1292e-03  1.4806e-02  9.8193e-01  1.7412e-02  1.6091e-03  1.2786e-03  0:01:57 1656
   345  1.8029e-02  6.1474e-03  1.4608e-02  9.7638e-01  1.8026e-02  1.5938e-03  1.2705e-03  0:01:33 1655
   346  1.8772e-02  6.1053e-03  1.4312e-02  9.6858e-01  1.8769e-02  1.5916e-03  1.2698e-03  0:01:14 1654
   347  1.9618e-02  6.0376e-03  1.4164e-02  9.5735e-01  1.9615e-02  1.5859e-03  1.2564e-03  0:01:00 1653
   348  2.0411e-02  6.0433e-03  1.4089e-02  9.4183e-01  2.0407e-02  1.5697e-03  1.2322e-03  0:00:48 1652
   349  2.0681e-02  6.0949e-03  1.3995e-02  9.3194e-01  2.0678e-02  1.5670e-03  1.2232e-03  0:00:38 1651
   350  2.0499e-02  6.1811e-03  1.4141e-02  9.2736e-01  2.0495e-02  1.5509e-03  1.2112e-03  0:06:00 1650
   351  1.9812e-02  6.3226e-03  1.4494e-02  9.2854e-01  1.9807e-02  1.5344e-03  1.2029e-03  0:04:48 1649
   352  1.8560e-02  6.5430e-03  1.4752e-02  9.3266e-01  1.8555e-02  1.5238e-03  1.1975e-03  0:03:50 1648

  iter  continuity  x-velocity  y-velocity  z-velocity      energy           k       omega     time/iter
   353  1.7238e-02  6.8352e-03  1.4919e-02  9.3826e-01  1.7234e-02  1.5342e-03  1.2034e-03  0:03:04 1647
   354  1.6346e-02  7.0380e-03  1.5047e-02  9.4812e-01  1.6341e-02  1.5282e-03  1.2103e-03  0:02:27 1646
   355  1.6221e-02  7.1838e-03  1.5101e-02  9.6376e-01  1.6216e-02  1.5306e-03  1.2204e-03  0:01:58 1645
   356  1.7062e-02  7.2531e-03  1.4992e-02  9.7036e-01  1.7057e-02  1.5473e-03  1.2525e-03  0:01:34 1644
   357  1.8283e-02  7.2996e-03  1.4847e-02  9.9118e-01  1.8279e-02  1.5693e-03  1.2732e-03  0:01:15 1643
   358  1.9759e-02  7.2457e-03  1.4684e-02  1.0165e+00  1.9756e-02  1.5798e-03  1.2763e-03  0:01:00 1642
   359  2.1311e-02  7.1144e-03  1.4499e-02  1.0198e+00  2.1308e-02  1.5986e-03  1.3120e-03  0:00:48 1641
   360  2.2703e-02  6.9713e-03  1.4429e-02  1.0337e+00  2.2699e-02  1.6201e-03  1.3176e-03  0:00:38 1640
   361  2.3694e-02  6.8652e-03  1.4468e-02  1.0413e+00  2.3690e-02  1.6484e-03  1.3313e-03  0:00:31 1639
   362  2.3779e-02  6.7510e-03  1.4554e-02  1.0526e+00  2.3775e-02  1.6499e-03  1.3215e-03  0:05:52 1638
   363  2.3074e-02  6.6532e-03  1.4919e-02  1.0686e+00  2.3070e-02  1.6803e-03  1.3299e-03  0:04:42 1637

  iter  continuity  x-velocity  y-velocity  z-velocity      energy           k       omega     time/iter
   364  2.2013e-02  6.5570e-03  1.5312e-02  1.0769e+00  2.2009e-02  1.6767e-03  1.3404e-03  0:03:45 1636
   365  2.0406e-02  6.5533e-03  1.5601e-02  1.0899e+00  2.0402e-02  1.6756e-03  1.3436e-03  0:03:00 1635
   366  1.9049e-02  6.5172e-03  1.5770e-02  1.0807e+00  1.9045e-02  1.6802e-03  1.3409e-03  0:02:24 1634
   367  1.8416e-02  6.4614e-03  1.5721e-02  1.0721e+00  1.8413e-02  1.6790e-03  1.3497e-03  0:01:55 1633
   368  1.8319e-02  6.3972e-03  1.5512e-02  1.0729e+00  1.8316e-02  1.6690e-03  1.3598e-03  0:01:32 1632
   369  1.8608e-02  6.3040e-03  1.5258e-02  1.0653e+00  1.8604e-02  1.6506e-03  1.3824e-03  0:01:14 1631
   370  1.9243e-02  6.2959e-03  1.4896e-02  1.0470e+00  1.9239e-02  1.6334e-03  1.3679e-03  0:00:59 1630
   371  1.9892e-02  6.2048e-03  1.4470e-02  1.0273e+00  1.9889e-02  1.6214e-03  1.3383e-03  0:00:47 1629
   372  2.0590e-02  6.1621e-03  1.4209e-02  9.9127e-01  2.0586e-02  1.6114e-03  1.3181e-03  0:00:38 1628
   373  2.0992e-02  6.1497e-03  1.3874e-02  9.8597e-01  2.0988e-02  1.5893e-03  1.2949e-03  0:00:30 1627
   374  2.0834e-02  6.1476e-03  1.3688e-02  9.8087e-01  2.0829e-02  1.5584e-03  1.2732e-03  0:00:24 1626

  iter  continuity  x-velocity  y-velocity  z-velocity      energy           k       omega     time/iter
   375  2.0249e-02  6.2064e-03  1.3744e-02  9.8392e-01  2.0244e-02  1.5261e-03  1.2526e-03  0:05:44 1625
   376  1.8714e-02  6.2878e-03  1.3724e-02  1.0090e+00  1.8709e-02  1.5277e-03  1.2494e-03  0:04:35 1624
   377  1.7253e-02  6.4699e-03  1.3682e-02  1.0320e+00  1.7248e-02  1.5160e-03  1.2357e-03  0:03:40 1623
   378  1.6182e-02  6.5629e-03  1.3631e-02  1.0607e+00  1.6177e-02  1.5038e-03  1.2360e-03  0:02:56 1622
   379  1.6086e-02  6.6066e-03  1.3510e-02  1.0809e+00  1.6081e-02  1.4879e-03  1.2324e-03  0:02:21 1621
   380  1.6656e-02  6.6345e-03  1.3284e-02  1.1113e+00  1.6651e-02  1.4937e-03  1.2416e-03  0:01:52 1620
   381  1.7772e-02  6.6143e-03  1.3037e-02  1.1176e+00  1.7767e-02  1.5139e-03  1.2497e-03  0:01:30 1619
   382  1.9263e-02  6.5022e-03  1.2802e-02  1.0981e+00  1.9259e-02  1.5093e-03  1.2559e-03  0:01:12 1618
   383  2.0578e-02  6.3665e-03  1.2551e-02  1.0870e+00  2.0573e-02  1.5055e-03  1.2552e-03  0:00:57 1617
   384  2.1581e-02  6.2002e-03  1.2454e-02  1.0728e+00  2.1577e-02  1.5296e-03  1.2576e-03  0:00:46 1616
   385  2.1903e-02  6.0659e-03  1.2332e-02  1.0732e+00  2.1899e-02  1.5235e-03  1.2583e-03  0:00:37 1615

  iter  continuity  x-velocity  y-velocity  z-velocity      energy           k       omega     time/iter
   386  2.1416e-02  5.8928e-03  1.2373e-02  1.0758e+00  2.1411e-02  1.5192e-03  1.2429e-03  0:00:29 1614
   387  2.0560e-02  5.7469e-03  1.2599e-02  1.0827e+00  2.0555e-02  1.5304e-03  1.2435e-03  0:05:46 1613
   388  1.8996e-02  5.6890e-03  1.2760e-02  1.0948e+00  1.8991e-02  1.5138e-03  1.2411e-03  0:04:37 1612
   389  1.7412e-02  5.6056e-03  1.2763e-02  1.1014e+00  1.7407e-02  1.5091e-03  1.2474e-03  0:03:41 1611
   390  1.6388e-02  5.5049e-03  1.2668e-02  1.1079e+00  1.6383e-02  1.5000e-03  1.2349e-03  0:02:57 1610
   391  1.6180e-02  5.4160e-03  1.2485e-02  1.1109e+00  1.6175e-02  1.4960e-03  1.2244e-03  0:02:21 1609
   392  1.6472e-02  5.3556e-03  1.2271e-02  1.1079e+00  1.6468e-02  1.4725e-03  1.2375e-03  0:01:53 1608
   393  1.6883e-02  5.2872e-03  1.1962e-02  1.0843e+00  1.6878e-02  1.4410e-03  1.2241e-03  0:01:30 1607
   394  1.7532e-02  5.2204e-03  1.1586e-02  1.0697e+00  1.7528e-02  1.4207e-03  1.1960e-03  0:01:12 1606
   395  1.8126e-02  5.1733e-03  1.1283e-02  1.0487e+00  1.8122e-02  1.4035e-03  1.1711e-03  0:00:58 1605
   396  1.8195e-02  5.1074e-03  1.1015e-02  1.0198e+00  1.8190e-02  1.3951e-03  1.1503e-03  0:00:46 1604

  iter  continuity  x-velocity  y-velocity  z-velocity      energy           k       omega     time/iter
   397  1.8050e-02  5.0658e-03  1.0836e-02  9.8876e-01  1.8045e-02  1.3594e-03  1.1208e-03  0:00:37 1603
   398  1.7102e-02  5.0744e-03  1.0772e-02  9.6616e-01  1.7097e-02  1.3373e-03  1.1082e-03  0:00:30 1602
   399  1.5923e-02  5.1680e-03  1.0757e-02  9.5284e-01  1.5918e-02  1.3135e-03  1.0862e-03  0:05:44 1601
   400  1.4735e-02  5.2605e-03  1.0693e-02  9.2719e-01  1.4730e-02  1.3052e-03  1.0770e-03  0:04:35 1600
   401  1.4032e-02  5.3019e-03  1.0637e-02  9.1849e-01  1.4027e-02  1.2888e-03  1.0664e-03  0:03:40 1599
   402  1.4001e-02  5.3373e-03  1.0566e-02  9.1281e-01  1.3996e-02  1.2742e-03  1.0786e-03  0:02:56 1598
   403  1.4350e-02  5.4021e-03  1.0426e-02  9.1323e-01  1.4345e-02  1.2659e-03  1.0713e-03  0:02:20 1597
   404  1.5254e-02  5.3759e-03  1.0282e-02  9.2750e-01  1.5250e-02  1.2708e-03  1.0567e-03  0:01:52 1596
   405  1.6528e-02  5.2971e-03  1.0116e-02  9.3297e-01  1.6523e-02  1.2682e-03  1.0793e-03  0:01:30 1595
   406  1.7693e-02  5.1922e-03  9.9990e-03  9.4226e-01  1.7688e-02  1.2871e-03  1.0711e-03  0:01:12 1594
   407  1.8801e-02  5.0788e-03  9.9754e-03  9.5107e-01  1.8796e-02  1.2798e-03  1.0622e-03  0:00:57 1593

  iter  continuity  x-velocity  y-velocity  z-velocity      energy           k       omega     time/iter
   408  1.8948e-02  4.9613e-03  9.9265e-03  9.6426e-01  1.8943e-02  1.2897e-03  1.0582e-03  0:00:46 1592
   409  1.8695e-02  4.8532e-03  1.0119e-02  9.9032e-01  1.8690e-02  1.2742e-03  1.0520e-03  0:00:37 1591
   410  1.7848e-02  4.7971e-03  1.0350e-02  1.0171e+00  1.7843e-02  1.2897e-03  1.0484e-03  0:00:29 1590
   411  1.6633e-02  4.7884e-03  1.0507e-02  1.0204e+00  1.6629e-02  1.2846e-03  1.0428e-03  0:05:41 1589
   412  1.5455e-02  4.7589e-03  1.0609e-02  1.0409e+00  1.5451e-02  1.2819e-03  1.0534e-03  0:04:33 1588
   413  1.4639e-02  4.7136e-03  1.0627e-02  1.0514e+00  1.4634e-02  1.2676e-03  1.0493e-03  0:03:38 1587
   414  1.4348e-02  4.6593e-03  1.0546e-02  1.0690e+00  1.4343e-02  1.2767e-03  1.0413e-03  0:02:54 1586
   415  1.4396e-02  4.6644e-03  1.0478e-02  1.0757e+00  1.4392e-02  1.2719e-03  1.0632e-03  0:02:19 1585
   416  1.4759e-02  4.6374e-03  1.0271e-02  1.0793e+00  1.4754e-02  1.2474e-03  1.0380e-03  0:01:51 1584
   417  1.5472e-02  4.6367e-03  1.0035e-02  1.0663e+00  1.5467e-02  1.2232e-03  1.0289e-03  0:01:29 1583
   418  1.6117e-02  4.6163e-03  9.8327e-03  1.0501e+00  1.6112e-02  1.2063e-03  1.0046e-03  0:01:11 1582

  iter  continuity  x-velocity  y-velocity  z-velocity      energy           k       omega     time/iter
   419  1.6362e-02  4.5737e-03  9.6568e-03  1.0364e+00  1.6357e-02  1.2098e-03  1.0049e-03  0:00:57 1581
   420  1.6437e-02  4.5474e-03  9.6306e-03  1.0148e+00  1.6432e-02  1.1895e-03  9.7928e-04  0:00:46 1580
   421  1.5853e-02  4.5895e-03  9.7103e-03  9.9209e-01  1.5848e-02  1.1732e-03  9.6642e-04  0:00:36 1579
   422  1.4948e-02  4.7140e-03  9.8302e-03  9.7931e-01  1.4943e-02  1.1639e-03  9.5468e-04  0:00:29 1578
   423  1.3991e-02  4.8733e-03  9.8834e-03  9.6792e-01  1.3986e-02  1.1467e-03  9.5433e-04  0:00:23 1577
   424  1.3249e-02  4.9855e-03  9.9415e-03  9.5422e-01  1.3244e-02  1.1528e-03  9.5302e-04  0:05:34 1576
   425  1.3235e-02  5.0576e-03  9.9879e-03  9.5734e-01  1.3230e-02  1.1424e-03  9.5887e-04  0:04:27 1575
   426  1.3179e-02  5.1429e-03  9.9879e-03  9.5392e-01  1.3174e-02  1.1352e-03  9.6280e-04  0:03:33 1574
   427  1.4165e-02  5.2001e-03  9.9549e-03  9.7552e-01  1.4160e-02  1.1506e-03  9.6902e-04  0:02:51 1573
   428  1.5373e-02  5.1795e-03  9.9153e-03  1.0021e+00  1.5369e-02  1.1496e-03  9.8887e-04  0:02:16 1572
   429  1.6549e-02  5.1209e-03  9.8676e-03  1.0306e+00  1.6544e-02  1.1675e-03  9.8724e-04  0:01:49 1571

  iter  continuity  x-velocity  y-velocity  z-velocity      energy           k       omega     time/iter
   430  1.7921e-02  5.0465e-03  9.8734e-03  1.0564e+00  1.7916e-02  1.1918e-03  9.9860e-04  0:01:27 1570
   431  1.9019e-02  4.9745e-03  9.9263e-03  1.0925e+00  1.9013e-02  1.1915e-03  1.0022e-03  0:01:10 1569
   432  1.9102e-02  4.8975e-03  1.0140e-02  1.1135e+00  1.9097e-02  1.2104e-03  9.9707e-04  0:00:56 1568
   433  1.8895e-02  4.8679e-03  1.0524e-02  1.1462e+00  1.8890e-02  1.2295e-03  1.0119e-03  0:00:45 1567
   434  1.8166e-02  4.9065e-03  1.0893e-02  1.1637e+00  1.8160e-02  1.2406e-03  1.0179e-03  0:00:36 1566
   435  1.7183e-02  4.9794e-03  1.1196e-02  1.1780e+00  1.7178e-02  1.2489e-03  1.0152e-03  0:00:28 1565
   436  1.6253e-02  5.0183e-03  1.1449e-02  1.2159e+00  1.6248e-02  1.2428e-03  1.0261e-03  0:05:36 1564
   437  1.5371e-02  5.0470e-03  1.1563e-02  1.2231e+00  1.5366e-02  1.2627e-03  1.0367e-03  0:04:28 1563
   438  1.5037e-02  5.0608e-03  1.1584e-02  1.2478e+00  1.5033e-02  1.2595e-03  1.0322e-03  0:03:34 1562
   439  1.5164e-02  5.0903e-03  1.1555e-02  1.2491e+00  1.5160e-02  1.2706e-03  1.0537e-03  0:02:51 1561
   440  1.5490e-02  5.0913e-03  1.1394e-02  1.2611e+00  1.5486e-02  1.2448e-03  1.0454e-03  0:02:17 1560

  iter  continuity  x-velocity  y-velocity  z-velocity      energy           k       omega     time/iter
   441  1.6323e-02  5.0658e-03  1.1155e-02  1.2628e+00  1.6318e-02  1.2413e-03  1.0381e-03  0:01:50 1559
   442  1.7107e-02  5.0495e-03  1.1046e-02  1.2505e+00  1.7102e-02  1.2406e-03  1.0229e-03  0:01:28 1558
   443  1.7680e-02  5.0361e-03  1.0926e-02  1.2394e+00  1.7675e-02  1.2281e-03  1.0219e-03  0:01:10 1557
   444  1.7880e-02  5.0342e-03  1.0875e-02  1.2301e+00  1.7875e-02  1.2015e-03  9.9949e-04  0:00:56 1556
   445  1.7813e-02  5.0977e-03  1.1081e-02  1.2166e+00  1.7807e-02  1.2048e-03  9.7402e-04  0:00:45 1555
   446  1.6997e-02  5.2167e-03  1.1334e-02  1.2057e+00  1.6991e-02  1.2069e-03  9.7477e-04  0:05:47 1554
   447  1.5912e-02  5.4329e-03  1.1533e-02  1.2167e+00  1.5906e-02  1.1879e-03  9.7828e-04  0:04:37 1553
   448  1.4940e-02  5.6461e-03  1.1698e-02  1.2222e+00  1.4935e-02  1.1759e-03  9.7969e-04  0:03:42 1552
   449  1.4296e-02  5.8009e-03  1.1840e-02  1.2342e+00  1.4290e-02  1.1810e-03  9.7983e-04  0:02:57 1551
   450  1.4486e-02  5.9009e-03  1.1900e-02  1.2558e+00  1.4481e-02  1.1890e-03  9.9176e-04  0:02:22 1550
   451  1.5050e-02  5.9945e-03  1.1895e-02  1.2707e+00  1.5045e-02  1.1909e-03  1.0120e-03  0:01:53 1549

  iter  continuity  x-velocity  y-velocity  z-velocity      energy           k       omega     time/iter
   452  1.6237e-02  6.0335e-03  1.1865e-02  1.3038e+00  1.6232e-02  1.2125e-03  1.0309e-03  0:01:31 1548
   453  1.7676e-02  5.9955e-03  1.1819e-02  1.3397e+00  1.7671e-02  1.2256e-03  1.0425e-03  0:01:12 1547
   454  1.9023e-02  5.9016e-03  1.1776e-02  1.3686e+00  1.9018e-02  1.2600e-03  1.0545e-03  0:00:58 1546
   455  2.0372e-02  5.8115e-03  1.1849e-02  1.3972e+00  2.0367e-02  1.2829e-03  1.0605e-03  0:00:46 1545
   456  2.1428e-02  5.7275e-03  1.1944e-02  1.4302e+00  2.1423e-02  1.2820e-03  1.0617e-03  0:00:37 1544
   457  2.1488e-02  5.6527e-03  1.2231e-02  1.4498e+00  2.1483e-02  1.3046e-03  1.0604e-03  0:00:30 1543
   458  2.1171e-02  5.6341e-03  1.2769e-02  1.5024e+00  2.1165e-02  1.3337e-03  1.0792e-03  0:05:32 1542
   459  2.0230e-02  5.6675e-03  1.3215e-02  1.5718e+00  2.0225e-02  1.3393e-03  1.0835e-03  0:04:25 1541
   460  1.9039e-02  5.7679e-03  1.3606e-02  1.6368e+00  1.9034e-02  1.3397e-03  1.0927e-03  0:03:32 1540
   461  1.7990e-02  5.8200e-03  1.3889e-02  1.6851e+00  1.7985e-02  1.3478e-03  1.0996e-03  0:02:50 1539
   462  1.7191e-02  5.8494e-03  1.4013e-02  1.7312e+00  1.7187e-02  1.3551e-03  1.1056e-03  0:02:16 1538

  iter  continuity  x-velocity  y-velocity  z-velocity      energy           k       omega     time/iter
   463  1.7031e-02  5.8545e-03  1.3985e-02  1.7803e+00  1.7027e-02  1.3484e-03  1.1135e-03  0:01:48 1537
   464  1.7144e-02  5.8258e-03  1.3896e-02  1.8119e+00  1.7139e-02  1.3560e-03  1.1398e-03  0:01:27 1536
   465  1.7634e-02  5.8474e-03  1.3677e-02  1.8239e+00  1.7629e-02  1.3285e-03  1.1345e-03  0:01:09 1535
   466  1.8421e-02  5.8040e-03  1.3349e-02  1.8246e+00  1.8416e-02  1.3272e-03  1.1237e-03  0:00:55 1534
   467  1.9181e-02  5.7576e-03  1.3225e-02  1.8216e+00  1.9175e-02  1.3203e-03  1.1062e-03  0:00:44 1533
   468  1.9974e-02  5.7672e-03  1.3093e-02  1.7836e+00  1.9969e-02  1.3145e-03  1.0923e-03  0:00:35 1532
   469  2.0126e-02  5.8023e-03  1.2990e-02  1.7475e+00  2.0120e-02  1.2861e-03  1.0728e-03  0:00:28 1531
   470  1.9847e-02  5.8853e-03  1.3130e-02  1.7259e+00  1.9841e-02  1.2793e-03  1.0496e-03  0:05:29 1530
   471  1.8980e-02  5.9807e-03  1.3435e-02  1.7478e+00  1.8974e-02  1.2767e-03  1.0451e-03  0:04:23 1529
   472  1.7593e-02  6.1830e-03  1.3628e-02  1.7781e+00  1.7587e-02  1.2570e-03  1.0496e-03  0:03:30 1528
   473  1.6385e-02  6.4306e-03  1.3783e-02  1.7960e+00  1.6379e-02  1.2381e-03  1.0476e-03  0:02:48 1527

  iter  continuity  x-velocity  y-velocity  z-velocity      energy           k       omega     time/iter
   474  1.5589e-02  6.5915e-03  1.3885e-02  1.8182e+00  1.5583e-02  1.2460e-03  1.0589e-03  0:02:14 1526
   475  1.5788e-02  6.7093e-03  1.3902e-02  1.8284e+00  1.5783e-02  1.2558e-03  1.0638e-03  0:01:47 1525
   476  1.6676e-02  6.7500e-03  1.3797e-02  1.8329e+00  1.6670e-02  1.2656e-03  1.0897e-03  0:01:26 1524
   477  1.8024e-02  6.7772e-03  1.3685e-02  1.8786e+00  1.8019e-02  1.2793e-03  1.1090e-03  0:01:09 1523
   478  1.9592e-02  6.7096e-03  1.3554e-02  1.9007e+00  1.9587e-02  1.2858e-03  1.1081e-03  0:00:55 1522
   479  2.1118e-02  6.5765e-03  1.3418e-02  1.9180e+00  2.1113e-02  1.3163e-03  1.1255e-03  0:00:44 1521
   480  2.2429e-02  6.4338e-03  1.3469e-02  1.9329e+00  2.2424e-02  1.3353e-03  1.1299e-03  0:00:35 1520
   481  2.3438e-02  6.3485e-03  1.3545e-02  1.9501e+00  2.3433e-02  1.3475e-03  1.1361e-03  0:00:28 1519
   482  2.3293e-02  6.2554e-03  1.3737e-02  1.9838e+00  2.3287e-02  1.3434e-03  1.1309e-03  0:05:26 1518
   483  2.2581e-02  6.1939e-03  1.4234e-02  2.0096e+00  2.2575e-02  1.3821e-03  1.1412e-03  0:04:21 1517
   484  2.1326e-02  6.1634e-03  1.4662e-02  2.0609e+00  2.1320e-02  1.3755e-03  1.1463e-03  0:03:28 1516

  iter  continuity  x-velocity  y-velocity  z-velocity      energy           k       omega     time/iter
   485  1.9782e-02  6.2091e-03  1.4972e-02  2.0843e+00  1.9777e-02  1.3836e-03  1.1556e-03  0:02:47 1515
   486  1.8484e-02  6.2255e-03  1.5138e-02  2.0761e+00  1.8478e-02  1.3802e-03  1.1576e-03  0:02:13 1514
   487  1.7905e-02  6.2086e-03  1.5146e-02  2.0671e+00  1.7900e-02  1.3834e-03  1.1630e-03  0:01:46 1513
   488  1.8007e-02  6.1730e-03  1.4974e-02  2.0913e+00  1.8002e-02  1.3628e-03  1.1717e-03  0:01:25 1512
   489  1.8247e-02  6.1031e-03  1.4777e-02  2.0840e+00  1.8242e-02  1.3580e-03  1.1928e-03  0:01:08 1511
   490  1.8764e-02  6.1080e-03  1.4441e-02  2.0708e+00  1.8759e-02  1.3366e-03  1.1810e-03  0:00:54 1510
   491  1.9534e-02  6.0342e-03  1.4049e-02  2.0536e+00  1.9529e-02  1.3344e-03  1.1609e-03  0:00:43 1509
   492  2.0203e-02  5.9858e-03  1.3869e-02  2.0105e+00  2.0197e-02  1.3222e-03  1.1400e-03  0:00:35 1508
   493  2.0760e-02  6.0019e-03  1.3640e-02  1.9594e+00  2.0754e-02  1.3094e-03  1.1151e-03  0:00:28 1507
   494  2.0641e-02  6.0285e-03  1.3533e-02  1.9387e+00  2.0635e-02  1.2813e-03  1.0993e-03  0:05:23 1506
   495  2.0088e-02  6.1140e-03  1.3647e-02  1.9196e+00  2.0082e-02  1.2664e-03  1.0768e-03  0:04:19 1505

  iter  continuity  x-velocity  y-velocity  z-velocity      energy           k       omega     time/iter
   496  1.8815e-02  6.2250e-03  1.3834e-02  1.9057e+00  1.8809e-02  1.2688e-03  1.0667e-03  0:03:27 1504
   497  1.7315e-02  6.4280e-03  1.3906e-02  1.9047e+00  1.7309e-02  1.2481e-03  1.0771e-03  0:02:45 1503
   498  1.6193e-02  6.6073e-03  1.3942e-02  1.9018e+00  1.6187e-02  1.2316e-03  1.0760e-03  0:02:12 1502
   499  1.5748e-02  6.7048e-03  1.3927e-02  1.8881e+00  1.5742e-02  1.2398e-03  1.0861e-03  0:01:46 1501
   500  1.6470e-02  6.7424e-03  1.3806e-02  1.8823e+00  1.6464e-02  1.2419e-03  1.0826e-03  0:01:24 1500
   501  1.7541e-02  6.7671e-03  1.3637e-02  1.8788e+00  1.7536e-02  1.2638e-03  1.1117e-03  0:01:08 1499
   502  1.8992e-02  6.7090e-03  1.3463e-02  1.9110e+00  1.8986e-02  1.2756e-03  1.1127e-03  0:00:54 1498
   503  2.0641e-02  6.5866e-03  1.3259e-02  1.9227e+00  2.0635e-02  1.2745e-03  1.1249e-03  0:00:43 1497
   504  2.1948e-02  6.4353e-03  1.3183e-02  1.9282e+00  2.1942e-02  1.3115e-03  1.1296e-03  0:00:34 1496
   505  2.3108e-02  6.2923e-03  1.3224e-02  1.9435e+00  2.3102e-02  1.3160e-03  1.1335e-03  0:00:28 1495
   506  2.3299e-02  6.1899e-03  1.3241e-02  1.9759e+00  2.3293e-02  1.3180e-03  1.1297e-03  0:00:22 1494

  iter  continuity  x-velocity  y-velocity  z-velocity      energy           k       omega     time/iter
   507  2.2527e-02  6.0621e-03  1.3563e-02  2.0092e+00  2.2521e-02  1.3291e-03  1.1339e-03  0:05:16 1493
   508  2.1315e-02  5.9760e-03  1.3993e-02  2.0791e+00  2.1309e-02  1.3392e-03  1.1352e-03  0:04:13 1492
   509  1.9608e-02  5.9899e-03  1.4249e-02  2.1203e+00  1.9602e-02  1.3361e-03  1.1410e-03  0:03:22 1491
   510  1.8189e-02  5.9971e-03  1.4387e-02  2.1296e+00  1.8183e-02  1.3296e-03  1.1472e-03  0:02:42 1490
   511  1.7419e-02  5.9512e-03  1.4362e-02  2.1366e+00  1.7413e-02  1.3329e-03  1.1438e-03  0:02:09 1489
   512  1.7453e-02  5.9041e-03  1.4197e-02  2.1408e+00  1.7447e-02  1.3194e-03  1.1523e-03  0:01:43 1488
   513  1.7691e-02  5.8387e-03  1.3973e-02  2.1466e+00  1.7686e-02  1.3083e-03  1.1629e-03  0:01:23 1487
   514  1.8169e-02  5.8296e-03  1.3669e-02  2.1132e+00  1.8164e-02  1.2802e-03  1.1625e-03  0:01:06 1486
   515  1.8868e-02  5.7497e-03  1.3263e-02  2.0899e+00  1.8862e-02  1.2741e-03  1.1368e-03  0:00:53 1485
   516  1.9522e-02  5.7149e-03  1.3046e-02  2.0553e+00  1.9516e-02  1.2611e-03  1.1126e-03  0:00:42 1484
   517  1.9947e-02  5.6965e-03  1.2786e-02  1.9966e+00  1.9941e-02  1.2492e-03  1.0886e-03  0:00:34 1483

  iter  continuity  x-velocity  y-velocity  z-velocity      energy           k       omega     time/iter
   518  1.9838e-02  5.6880e-03  1.2623e-02  1.9568e+00  1.9832e-02  1.2108e-03  1.0654e-03  0:00:27 1482
   519  1.9325e-02  5.7420e-03  1.2679e-02  1.9125e+00  1.9319e-02  1.1925e-03  1.0502e-03  0:05:18 1481
   520  1.7986e-02  5.8318e-03  1.2767e-02  1.8927e+00  1.7979e-02  1.1958e-03  1.0329e-03  0:04:14 1480
   521  1.6610e-02  6.0146e-03  1.2833e-02  1.9138e+00  1.6604e-02  1.1803e-03  1.0380e-03  0:03:23 1479
   522  1.5528e-02  6.1644e-03  1.2844e-02  1.9052e+00  1.5523e-02  1.1528e-03  1.0302e-03  0:02:42 1478
   523  1.5154e-02  6.2408e-03  1.2814e-02  1.9118e+00  1.5148e-02  1.1570e-03  1.0443e-03  0:02:10 1477
   524  1.5736e-02  6.2761e-03  1.2683e-02  1.9095e+00  1.5731e-02  1.1538e-03  1.0398e-03  0:01:44 1476
   525  1.6786e-02  6.3084e-03  1.2537e-02  1.9280e+00  1.6780e-02  1.1735e-03  1.0514e-03  0:01:23 1475
   526  1.8128e-02  6.2451e-03  1.2403e-02  1.9459e+00  1.8122e-02  1.1809e-03  1.0573e-03  0:01:06 1474
   527  1.9658e-02  6.1404e-03  1.2202e-02  1.9494e+00  1.9652e-02  1.1811e-03  1.0698e-03  0:00:53 1473
   528  2.0909e-02  6.0074e-03  1.2159e-02  1.9484e+00  2.0903e-02  1.2184e-03  1.0684e-03  0:00:42 1472

  iter  continuity  x-velocity  y-velocity  z-velocity      energy           k       omega     time/iter
   529  2.2026e-02  5.8767e-03  1.2165e-02  1.9255e+00  2.2020e-02  1.2131e-03  1.0693e-03  0:00:34 1471
   530  2.2042e-02  5.7603e-03  1.2195e-02  1.9266e+00  2.2036e-02  1.2120e-03  1.0568e-03  0:00:27 1470
   531  2.1389e-02  5.6485e-03  1.2550e-02  1.9581e+00  2.1382e-02  1.2270e-03  1.0664e-03  0:05:15 1469
   532  2.0189e-02  5.5831e-03  1.2928e-02  2.0195e+00  2.0183e-02  1.2342e-03  1.0623e-03  0:04:12 1468
   533  1.8545e-02  5.6005e-03  1.3150e-02  2.0542e+00  1.8539e-02  1.2313e-03  1.0637e-03  0:03:22 1467
   534  1.7266e-02  5.5959e-03  1.3241e-02  2.0402e+00  1.7261e-02  1.2223e-03  1.0765e-03  0:02:41 1466
   535  1.6566e-02  5.5612e-03  1.3220e-02  2.0508e+00  1.6560e-02  1.2211e-03  1.0663e-03  0:02:09 1465
   536  1.6629e-02  5.5257e-03  1.3096e-02  2.0790e+00  1.6623e-02  1.2162e-03  1.0806e-03  0:01:43 1464
   537  1.6878e-02  5.4996e-03  1.2914e-02  2.0904e+00  1.6873e-02  1.2038e-03  1.0838e-03  0:01:22 1463
   538  1.7292e-02  5.4754e-03  1.2630e-02  2.0348e+00  1.7287e-02  1.1793e-03  1.0761e-03  0:01:06 1462
   539  1.8068e-02  5.4116e-03  1.2279e-02  2.0097e+00  1.8062e-02  1.1664e-03  1.0481e-03  0:00:53 1461

  iter  continuity  x-velocity  y-velocity  z-velocity      energy           k       omega     time/iter
   540  1.8731e-02  5.3901e-03  1.2085e-02  1.9514e+00  1.8725e-02  1.1594e-03  1.0327e-03  0:00:42 1460
   541  1.9018e-02  5.3680e-03  1.1857e-02  1.8710e+00  1.9012e-02  1.1498e-03  1.0155e-03  0:00:34 1459
   542  1.8903e-02  5.3691e-03  1.1754e-02  1.8175e+00  1.8897e-02  1.1128e-03  9.8544e-04  0:00:27 1458
   543  1.8365e-02  5.4167e-03  1.1884e-02  1.7804e+00  1.8359e-02  1.0975e-03  9.6620e-04  0:05:13 1457
   544  1.7026e-02  5.5267e-03  1.1962e-02  1.7731e+00  1.7019e-02  1.1040e-03  9.5307e-04  0:04:10 1456
   545  1.5738e-02  5.7228e-03  1.2044e-02  1.7731e+00  1.5732e-02  1.0851e-03  9.6480e-04  0:03:20 1455
   546  1.4808e-02  5.8623e-03  1.2102e-02  1.7494e+00  1.4802e-02  1.0694e-03  9.6028e-04  0:02:40 1454
   547  1.4643e-02  5.9497e-03  1.2090e-02  2.0447e+00  1.4637e-02  1.0719e-03  9.7031e-04  0:02:08 1453
   548  1.5163e-02  5.9973e-03  1.2007e-02  1.9246e+00  1.5157e-02  1.0679e-03  9.6668e-04  0:01:42 1452
   549  1.6250e-02  6.0349e-03  1.1899e-02  1.8306e+00  1.6244e-02  1.0828e-03  9.7845e-04  0:01:22 1451
   550  1.7583e-02  5.9869e-03  1.1800e-02  1.8385e+00  1.7578e-02  1.0952e-03  9.9515e-04  0:01:05 1450

  iter  continuity  x-velocity  y-velocity  z-velocity      energy           k       omega     time/iter
   551  1.9038e-02  5.8935e-03  1.1663e-02  1.8218e+00  1.9032e-02  1.1034e-03  1.0030e-03  0:00:52 1449
   552  2.0344e-02  5.7758e-03  1.1672e-02  1.7403e+00  2.0338e-02  1.1441e-03  1.0050e-03  0:00:42 1448
   553  2.1491e-02  5.6677e-03  1.1691e-02  1.6753e+00  2.1485e-02  1.1401e-03  1.0098e-03  0:00:33 1447
   554  2.1531e-02  5.5643e-03  1.1801e-02  1.6298e+00  2.1525e-02  1.1400e-03  9.9994e-04  0:00:27 1446
   555  2.0991e-02  5.4860e-03  1.2220e-02  1.5890e+00  2.0985e-02  1.1646e-03  1.0104e-03  0:00:21 1445
   556  1.9882e-02  5.4558e-03  1.2608e-02  1.6258e+00  1.9876e-02  1.1753e-03  1.0136e-03  0:05:06 1444
   557  1.8421e-02  5.5065e-03  1.2883e-02  1.6561e+00  1.8415e-02  1.1790e-03  1.0153e-03  0:04:05 1443
   558  1.7226e-02  5.5168e-03  1.3036e-02  1.6840e+00  1.7221e-02  1.1721e-03  1.0281e-03  0:03:15 1442
   559  1.6442e-02  5.5124e-03  1.3058e-02  1.7319e+00  1.6437e-02  1.1792e-03  1.0257e-03  0:02:36 1441
   560  1.6395e-02  5.4946e-03  1.2982e-02  1.7756e+00  1.6390e-02  1.1730e-03  1.0392e-03  0:02:05 1440
   561  1.6611e-02  5.4832e-03  1.2834e-02  1.7948e+00  1.6606e-02  1.1717e-03  1.0500e-03  0:01:40 1439

  iter  continuity  x-velocity  y-velocity  z-velocity      energy           k       omega     time/iter
   562  1.7006e-02  5.4786e-03  1.2584e-02  1.7876e+00  1.7000e-02  1.1491e-03  1.0458e-03  0:01:20 1438
   563  1.7832e-02  5.4186e-03  1.2247e-02  1.7532e+00  1.7826e-02  1.1366e-03  1.0206e-03  0:01:04 1437
   564  1.8563e-02  5.3896e-03  1.2092e-02  1.6975e+00  1.8557e-02  1.1334e-03  1.0090e-03  0:00:51 1436
   565  1.8995e-02  5.3794e-03  1.1903e-02  1.6283e+00  1.8989e-02  1.1260e-03  9.9477e-04  0:00:41 1435
   566  1.8968e-02  5.3877e-03  1.1822e-02  1.5627e+00  1.8961e-02  1.0939e-03  9.7184e-04  0:00:33 1434
   567  1.8601e-02  5.4515e-03  1.1973e-02  1.4893e+00  1.8595e-02  1.0879e-03  9.5222e-04  0:00:26 1433
   568  1.7461e-02  5.5628e-03  1.2147e-02  1.4198e+00  1.7455e-02  1.0922e-03  9.4149e-04  0:05:07 1432
   569  1.6206e-02  5.7720e-03  1.2290e-02  1.3829e+00  1.6200e-02  1.0728e-03  9.5186e-04  0:04:06 1431
   570  1.5184e-02  5.9578e-03  1.2383e-02  1.3464e+00  1.5179e-02  1.0586e-03  9.5402e-04  0:03:16 1430
   571  1.4663e-02  6.0772e-03  1.2436e-02  1.3240e+00  1.4658e-02  1.0649e-03  9.5664e-04  0:02:37 1429
   572  1.5192e-02  6.1376e-03  1.2406e-02  1.3259e+00  1.5187e-02  1.0674e-03  9.6372e-04  0:02:05 1428

  iter  continuity  x-velocity  y-velocity  z-velocity      energy           k       omega     time/iter
   573  1.6082e-02  6.1955e-03  1.2333e-02  1.3101e+00  1.6077e-02  1.0784e-03  9.8262e-04  0:01:40 1427
   574  1.7424e-02  6.1821e-03  1.2248e-02  1.3347e+00  1.7419e-02  1.0992e-03  9.9680e-04  0:01:20 1426
   575  1.9052e-02  6.1143e-03  1.2126e-02  1.3537e+00  1.9047e-02  1.1028e-03  1.0105e-03  0:01:04 1425
   576  2.0365e-02  5.9874e-03  1.2109e-02  1.3841e+00  2.0359e-02  1.1488e-03  1.0176e-03  0:00:51 1424
   577  2.1663e-02  5.8848e-03  1.2174e-02  1.3912e+00  2.1657e-02  1.1551e-03  1.0222e-03  0:00:41 1423
   578  2.2297e-02  5.7859e-03  1.2242e-02  1.3819e+00  2.2290e-02  1.1590e-03  1.0146e-03  0:00:33 1422
   579  2.1845e-02  5.6991e-03  1.2614e-02  1.3946e+00  2.1838e-02  1.1804e-03  1.0210e-03  0:00:26 1421
   580  2.1113e-02  5.6640e-03  1.3085e-02  1.3985e+00  2.1107e-02  1.2022e-03  1.0296e-03  0:00:21 1420
   581  1.9698e-02  5.7175e-03  1.3480e-02  1.4076e+00  1.9692e-02  1.2056e-03  1.0367e-03  0:05:01 1419
   582  1.8349e-02  5.7859e-03  1.3757e-02  1.4137e+00  1.8343e-02  1.1981e-03  1.0444e-03  0:04:00 1418
   583  1.7337e-02  5.7801e-03  1.3835e-02  1.4242e+00  1.7332e-02  1.2110e-03  1.0548e-03  0:03:12 1417

  iter  continuity  x-velocity  y-velocity  z-velocity      energy           k       omega     time/iter
   584  1.6959e-02  5.7936e-03  1.3838e-02  1.4280e+00  1.6954e-02  1.2117e-03  1.0561e-03  0:02:34 1416
   585  1.6952e-02  5.7538e-03  1.3711e-02  1.4392e+00  1.6946e-02  1.2017e-03  1.0732e-03  0:02:03 1415
   586  1.7422e-02  5.7659e-03  1.3532e-02  1.4430e+00  1.7417e-02  1.1916e-03  1.0756e-03  0:01:38 1414
   587  1.8004e-02  5.7272e-03  1.3202e-02  1.4375e+00  1.7998e-02  1.1792e-03  1.0673e-03  0:01:18 1413
   588  1.8844e-02  5.6662e-03  1.2943e-02  1.4329e+00  1.8838e-02  1.1736e-03  1.0408e-03  0:01:03 1412
   589  1.9539e-02  5.6472e-03  1.2808e-02  1.4124e+00  1.9533e-02  1.1664e-03  1.0293e-03  0:00:50 1411
   590  1.9854e-02  5.6633e-03  1.2637e-02  1.4023e+00  1.9847e-02  1.1387e-03  1.0137e-03  0:00:40 1410
   591  1.9675e-02  5.7037e-03  1.2649e-02  1.3903e+00  1.9669e-02  1.1227e-03  9.8768e-04  0:00:32 1409
   592  1.9044e-02  5.8014e-03  1.2886e-02  1.3802e+00  1.9037e-02  1.1234e-03  9.6847e-04  0:00:26 1408
   593  1.7727e-02  5.9460e-03  1.3069e-02  1.3774e+00  1.7721e-02  1.1203e-03  9.6932e-04  0:05:02 1407
   594  1.6452e-02  6.1857e-03  1.3208e-02  1.3853e+00  1.6446e-02  1.0862e-03  9.8529e-04  0:04:01 1406

  iter  continuity  x-velocity  y-velocity  z-velocity      energy           k       omega     time/iter
   595  1.5486e-02  6.3617e-03  1.3311e-02  1.3918e+00  1.5481e-02  1.0857e-03  9.8331e-04  0:03:13 1405
   596  1.5319e-02  6.4812e-03  1.3338e-02  1.3989e+00  1.5313e-02  1.0947e-03  9.9221e-04  0:02:34 1404
   597  1.6062e-02  6.5289e-03  1.3266e-02  1.4284e+00  1.6057e-02  1.1026e-03  9.9631e-04  0:02:03 1403
   598  1.7302e-02  6.5655e-03  1.3161e-02  1.4457e+00  1.7297e-02  1.1210e-03  1.0245e-03  0:01:39 1402
   599  1.8733e-02  6.5157e-03  1.3065e-02  1.4895e+00  1.8727e-02  1.1287e-03  1.0302e-03  0:01:19 1401
   600  2.0370e-02  6.4075e-03  1.2908e-02  1.5174e+00  2.0365e-02  1.1456e-03  1.0476e-03  0:01:03 1400
   601  2.1661e-02  6.2737e-03  1.2942e-02  1.5606e+00  2.1655e-02  1.1846e-03  1.0487e-03  0:00:50 1399
   602  2.2912e-02  6.1656e-03  1.3023e-02  1.6145e+00  2.2906e-02  1.1879e-03  1.0507e-03  0:00:40 1398
   603  2.3153e-02  6.0780e-03  1.3143e-02  1.6474e+00  2.3146e-02  1.1936e-03  1.0472e-03  0:00:32 1397
   604  2.2497e-02  5.9937e-03  1.3573e-02  1.7102e+00  2.2491e-02  1.2171e-03  1.0576e-03  0:00:26 1396
   605  2.1408e-02  5.9488e-03  1.4054e-02  1.7658e+00  2.1402e-02  1.2242e-03  1.0637e-03  0:05:00 1395

  iter  continuity  x-velocity  y-velocity  z-velocity      energy           k       omega     time/iter
   606  1.9859e-02  6.0132e-03  1.4412e-02  1.7994e+00  1.9853e-02  1.2249e-03  1.0733e-03  0:03:59 1394
   607  1.8527e-02  6.0611e-03  1.4639e-02  1.7955e+00  1.8521e-02  1.2205e-03  1.0789e-03  0:03:11 1393
   608  1.7710e-02  6.0474e-03  1.4684e-02  1.8350e+00  1.7704e-02  1.2308e-03  1.0852e-03  0:02:33 1392
   609  1.7597e-02  6.0371e-03  1.4586e-02  1.8568e+00  1.7591e-02  1.2211e-03  1.0867e-03  0:02:02 1391
   610  1.7716e-02  5.9725e-03  1.4403e-02  1.8872e+00  1.7711e-02  1.2135e-03  1.1016e-03  0:01:38 1390
   611  1.8260e-02  5.9832e-03  1.4163e-02  1.8852e+00  1.8254e-02  1.1940e-03  1.1051e-03  0:01:18 1389
   612  1.8865e-02  5.9211e-03  1.3765e-02  1.8718e+00  1.8859e-02  1.1870e-03  1.0877e-03  0:01:03 1388
   613  1.9624e-02  5.8689e-03  1.3553e-02  1.8557e+00  1.9618e-02  1.1803e-03  1.0647e-03  0:00:50 1387
   614  2.0319e-02  5.8680e-03  1.3391e-02  1.8156e+00  2.0313e-02  1.1748e-03  1.0421e-03  0:00:40 1386
   615  2.0434e-02  5.8923e-03  1.3216e-02  1.7791e+00  2.0427e-02  1.1387e-03  1.0263e-03  0:00:32 1385
   616  2.0068e-02  5.9600e-03  1.3268e-02  1.7397e+00  2.0061e-02  1.1292e-03  1.0043e-03  0:00:26 1384

  iter  continuity  x-velocity  y-velocity  z-velocity      energy           k       omega     time/iter
   617  1.9166e-02  6.0528e-03  1.3512e-02  1.7210e+00  1.9160e-02  1.1312e-03  9.8696e-04  0:04:57 1383
   618  1.7655e-02  6.2263e-03  1.3641e-02  1.7115e+00  1.7648e-02  1.1180e-03  9.9268e-04  0:03:57 1382
   619  1.6393e-02  6.4589e-03  1.3733e-02  1.7121e+00  1.6387e-02  1.0863e-03  9.9600e-04  0:03:10 1381
   620  1.5596e-02  6.5996e-03  1.3782e-02  1.7066e+00  1.5590e-02  1.0997e-03  1.0083e-03  0:02:32 1380
   621  1.5917e-02  6.6831e-03  1.3736e-02  1.7165e+00  1.5911e-02  1.1054e-03  1.0111e-03  0:02:01 1379
   622  1.6846e-02  6.7023e-03  1.3608e-02  1.7187e+00  1.6840e-02  1.1153e-03  1.0287e-03  0:01:37 1378
   623  1.8235e-02  6.7095e-03  1.3466e-02  1.7400e+00  1.8229e-02  1.1349e-03  1.0483e-03  0:01:18 1377
   624  1.9841e-02  6.6271e-03  1.3310e-02  1.7586e+00  1.9836e-02  1.1353e-03  1.0501e-03  0:01:02 1376
   625  2.1307e-02  6.4807e-03  1.3175e-02  1.7734e+00  2.1302e-02  1.1673e-03  1.0636e-03  0:00:50 1375
   626  2.2580e-02  6.3345e-03  1.3222e-02  1.7894e+00  2.2574e-02  1.1846e-03  1.0673e-03  0:00:40 1374
[...]
  1838  1.8009e-02  5.9564e-03  1.3114e-02  3.1155e+01  1.8002e-02  9.8622e-04  9.3279e-04  0:00:33  162
  1839  1.6658e-02  6.1760e-03  1.3222e-02  3.1231e+01  1.6651e-02  9.5991e-04  9.4768e-04  0:00:26  161
  1840  1.5634e-02  6.3520e-03  1.3289e-02  3.1028e+01  1.5628e-02  9.4148e-04  9.4568e-04  0:00:21  160
  1841  1.5325e-02  6.4548e-03  1.3295e-02  3.0836e+01  1.5319e-02  9.5698e-04  9.5638e-04  0:00:17  159
  1842  1.6023e-02  6.4944e-03  1.3210e-02  3.0887e+01  1.6017e-02  9.6122e-04  9.5462e-04  0:00:13  158
  1843  1.7135e-02  6.5285e-03  1.3087e-02  3.0739e+01  1.7129e-02  9.8121e-04  9.7904e-04  0:00:11  157
  1844  1.8539e-02  6.4806e-03  1.2961e-02  3.1181e+01  1.8533e-02  9.9387e-04  9.8956e-04  0:00:40  156
  1845  2.0198e-02  6.3750e-03  1.2792e-02  3.1075e+01  2.0192e-02  1.0004e-03  1.0023e-03  0:00:31  155
  1846  2.1477e-02  6.2398e-03  1.2784e-02  3.1427e+01  2.1471e-02  1.0411e-03  1.0072e-03  0:00:25  154
  1847  2.2726e-02  6.1209e-03  1.2847e-02  3.1357e+01  2.2720e-02  1.0446e-03  1.0071e-03  0:00:20  153
  1848  2.3003e-02  6.0183e-03  1.2915e-02  3.1792e+01  2.2997e-02  1.0505e-03  1.0011e-03  0:00:16  152

  iter  continuity  x-velocity  y-velocity  z-velocity      energy           k       omega     time/iter
  1849  2.2306e-02  5.9153e-03  1.3303e-02  3.2300e+01  2.2299e-02  1.0699e-03  1.0100e-03  0:00:13  151
  1850  2.1191e-02  5.8626e-03  1.3755e-02  3.3824e+01  2.1185e-02  1.0815e-03  1.0126e-03  0:00:40  150
  1851  1.9607e-02  5.9060e-03  1.4087e-02  3.4845e+01  1.9601e-02  1.0815e-03  1.0206e-03  0:00:32  149
  1852  1.8240e-02  5.9397e-03  1.4280e-02  3.5315e+01  1.8234e-02  1.0749e-03  1.0314e-03  0:00:25  148
  1853  1.7411e-02  5.9235e-03  1.4298e-02  3.6050e+01  1.7406e-02  1.0839e-03  1.0339e-03  0:00:20  147
  1854  1.7341e-02  5.9009e-03  1.4196e-02  3.6668e+01  1.7335e-02  1.0794e-03  1.0401e-03  0:00:16  146
  1855  1.7487e-02  5.8512e-03  1.4006e-02  3.6838e+01  1.7482e-02  1.0674e-03  1.0499e-03  0:00:13  145
  1856  1.7976e-02  5.8550e-03  1.3760e-02  3.6752e+01  1.7971e-02  1.0501e-03  1.0550e-03  0:00:10  144
  1857  1.8633e-02  5.7866e-03  1.3361e-02  3.6599e+01  1.8627e-02  1.0420e-03  1.0337e-03  0:00:37  143
  1858  1.9344e-02  5.7436e-03  1.3157e-02  3.6214e+01  1.9338e-02  1.0373e-03  1.0126e-03  0:00:29  142
  1859  1.9970e-02  5.7385e-03  1.2962e-02  3.5301e+01  1.9963e-02  1.0286e-03  9.9054e-04  0:00:23  141

  iter  continuity  x-velocity  y-velocity  z-velocity      energy           k       omega     time/iter
  1860  2.0009e-02  5.7486e-03  1.2791e-02  3.4520e+01  2.0003e-02  9.9244e-04  9.7046e-04  0:00:18  140
  1861  1.9617e-02  5.8033e-03  1.2844e-02  3.3686e+01  1.9610e-02  9.8059e-04  9.5094e-04  0:00:15  139
  1862  1.8649e-02  5.8985e-03  1.3056e-02  3.3369e+01  1.8642e-02  9.8628e-04  9.3383e-04  0:00:12  138
  1863  1.7161e-02  6.0748e-03  1.3166e-02  3.3230e+01  1.7154e-02  9.7435e-04  9.4017e-04  0:00:37  137
  1864  1.5974e-02  6.2858e-03  1.3243e-02  3.3212e+01  1.5968e-02  9.4231e-04  9.4487e-04  0:00:29  136
  1865  1.5276e-02  6.4128e-03  1.3288e-02  3.2964e+01  1.5270e-02  9.5562e-04  9.5300e-04  0:00:23  135
  1866  1.5696e-02  6.4765e-03  1.3230e-02  3.2924e+01  1.5690e-02  9.5723e-04  9.6051e-04  0:00:18  134
  1867  1.6551e-02  6.5073e-03  1.3127e-02  3.2884e+01  1.6545e-02  9.6927e-04  9.7109e-04  0:00:15  133
  1868  1.7942e-02  6.5092e-03  1.2994e-02  3.3067e+01  1.7937e-02  9.8982e-04  9.8527e-04  0:00:12  132
  1869  1.9561e-02  6.4304e-03  1.2846e-02  3.2901e+01  1.9555e-02  9.9087e-04  9.9696e-04  0:00:09  131
  1870  2.0986e-02  6.2864e-03  1.2748e-02  3.3018e+01  2.0980e-02  1.0254e-03  1.0072e-03  0:00:33  130

  iter  continuity  x-velocity  y-velocity  z-velocity      energy           k       omega     time/iter
  1871  2.2234e-02  6.1549e-03  1.2804e-02  3.3157e+01  2.2228e-02  1.0431e-03  1.0110e-03  0:00:26  129
  1872  2.3036e-02  6.0464e-03  1.2865e-02  3.3400e+01  2.3030e-02  1.0413e-03  1.0068e-03  0:00:21  128
  1873  2.2549e-02  5.9430e-03  1.3109e-02  3.3935e+01  2.2542e-02  1.0480e-03  1.0034e-03  0:00:17  127
  1874  2.1824e-02  5.8767e-03  1.3596e-02  3.4542e+01  2.1817e-02  1.0840e-03  1.0126e-03  0:00:13  126
  1875  2.0281e-02  5.8844e-03  1.3977e-02  3.5585e+01  2.0275e-02  1.0794e-03  1.0188e-03  0:00:10  125
  1876  1.8792e-02  5.9345e-03  1.4238e-02  3.6549e+01  1.8786e-02  1.0800e-03  1.0272e-03  0:00:33  124
  1877  1.7669e-02  5.9246e-03  1.4288e-02  3.7051e+01  1.7663e-02  1.0815e-03  1.0326e-03  0:00:26  123
  1878  1.7270e-02  5.9128e-03  1.4253e-02  3.7470e+01  1.7264e-02  1.0873e-03  1.0369e-03  0:00:21  122
  1879  1.7377e-02  5.8790e-03  1.4104e-02  3.8860e+01  1.7372e-02  1.0666e-03  1.0473e-03  0:00:17  121
  1880  1.7794e-02  5.8598e-03  1.3896e-02  3.8599e+01  1.7788e-02  1.0614e-03  1.0557e-03  0:00:13  120
  1881  1.8296e-02  5.8229e-03  1.3538e-02  3.8440e+01  1.8290e-02  1.0449e-03  1.0452e-03  0:00:10  119

  iter  continuity  x-velocity  y-velocity  z-velocity      energy           k       omega     time/iter
  1882  1.9117e-02  5.7523e-03  1.3213e-02  3.8112e+01  1.9110e-02  1.0405e-03  1.0163e-03  0:00:08  118
  1883  1.9753e-02  5.7296e-03  1.3047e-02  3.7208e+01  1.9747e-02  1.0291e-03  1.0016e-03  0:00:30  117
  1884  2.0073e-02  5.7374e-03  1.2835e-02  3.6458e+01  2.0067e-02  1.0055e-03  9.8415e-04  0:00:24  116
  1885  1.9859e-02  5.7668e-03  1.2796e-02  3.5792e+01  1.9852e-02  9.8225e-04  9.5913e-04  0:00:19  115
  1886  1.9188e-02  5.8555e-03  1.2988e-02  3.5225e+01  1.9181e-02  9.8494e-04  9.3711e-04  0:00:15  114
  1887  1.7766e-02  5.9824e-03  1.3121e-02  3.5198e+01  1.7760e-02  9.8486e-04  9.3308e-04  0:00:12  113
  1888  1.6440e-02  6.2063e-03  1.3221e-02  3.5478e+01  1.6434e-02  9.5389e-04  9.4827e-04  0:00:09  112
  1889  1.5480e-02  6.3671e-03  1.3288e-02  3.5384e+01  1.5474e-02  9.4482e-04  9.4476e-04  0:00:07  111
  1890  1.5409e-02  6.4661e-03  1.3273e-02  3.5206e+01  1.5403e-02  9.5659e-04  9.5738e-04  0:00:28  110
  1891  1.6144e-02  6.5022e-03  1.3173e-02  3.5460e+01  1.6138e-02  9.6253e-04  9.5516e-04  0:00:22  109
  1892  1.7373e-02  6.5285e-03  1.3053e-02  3.5505e+01  1.7367e-02  9.8405e-04  9.7989e-04  0:00:18  108

  iter  continuity  x-velocity  y-velocity  z-velocity      energy           k       omega     time/iter
  1893  1.8803e-02  6.4685e-03  1.2923e-02  3.5840e+01  1.8798e-02  9.9251e-04  9.9204e-04  0:00:14  107
  1894  2.0413e-02  6.3456e-03  1.2766e-02  3.5888e+01  2.0407e-02  1.0063e-03  1.0029e-03  0:00:11  106
  1895  2.1669e-02  6.2142e-03  1.2788e-02  3.6014e+01  2.1663e-02  1.0443e-03  1.0064e-03  0:00:09  105
  1896  2.2826e-02  6.0990e-03  1.2847e-02  3.6075e+01  2.2819e-02  1.0445e-03  1.0088e-03  0:00:28  104
  1897  2.2893e-02  5.9970e-03  1.2955e-02  3.6742e+01  2.2887e-02  1.0503e-03  1.0006e-03  0:00:22  103
  1898  2.2196e-02  5.9067e-03  1.3387e-02  3.7459e+01  2.2189e-02  1.0741e-03  1.0129e-03  0:00:17  102
  1899  2.0951e-02  5.8641e-03  1.3824e-02  3.9249e+01  2.0945e-02  1.0811e-03  1.0153e-03  0:00:14  101
  1900  1.9382e-02  5.9124e-03  1.4138e-02  4.0419e+01  1.9376e-02  1.0815e-03  1.0231e-03  0:00:11  100
  1901  1.8092e-02  5.9350e-03  1.4296e-02  4.0635e+01  1.8086e-02  1.0767e-03  1.0321e-03  0:00:09   99
  1902  1.7354e-02  5.9187e-03  1.4303e-02  4.1057e+01  1.7348e-02  1.0838e-03  1.0333e-03  0:00:07   98
  1903  1.7414e-02  5.8982e-03  1.4183e-02  4.1842e+01  1.7408e-02  1.0725e-03  1.0422e-03  0:00:25   97

  iter  continuity  x-velocity  y-velocity  z-velocity      energy           k       omega     time/iter
  1904  1.7598e-02  5.8516e-03  1.3989e-02  4.1966e+01  1.7592e-02  1.0688e-03  1.0522e-03  0:00:20   96
  1905  1.8056e-02  5.8511e-03  1.3703e-02  4.1716e+01  1.8050e-02  1.0457e-03  1.0516e-03  0:00:16   95
  1906  1.8819e-02  5.7788e-03  1.3315e-02  4.1774e+01  1.8813e-02  1.0409e-03  1.0287e-03  0:00:12   94
  1907  1.9502e-02  5.7452e-03  1.3138e-02  4.1481e+01  1.9495e-02  1.0331e-03  1.0099e-03  0:00:10   93
  1908  2.0018e-02  5.7355e-03  1.2922e-02  4.0357e+01  2.0012e-02  1.0220e-03  9.8713e-04  0:00:08   92
  1909  1.9978e-02  5.7450e-03  1.2796e-02  3.9623e+01  1.9972e-02  9.8889e-04  9.6766e-04  0:00:06   91
  1910  1.9522e-02  5.8161e-03  1.2890e-02  3.8590e+01  1.9515e-02  9.8002e-04  9.4764e-04  0:00:23   90
  1911  1.8387e-02  5.9204e-03  1.3096e-02  3.8067e+01  1.8380e-02  9.8620e-04  9.3249e-04  0:00:18   89
  1912  1.6935e-02  6.1166e-03  1.3199e-02  3.8168e+01  1.6929e-02  9.6822e-04  9.4345e-04  0:00:14   88
  1913  1.5815e-02  6.3139e-03  1.3259e-02  3.8409e+01  1.5809e-02  9.4089e-04  9.4357e-04  0:00:11   87
  1914  1.5268e-02  6.4295e-03  1.3290e-02  3.8153e+01  1.5262e-02  9.5727e-04  9.5434e-04  0:00:09   86

  iter  continuity  x-velocity  y-velocity  z-velocity      energy           k       omega     time/iter
  1915  1.5833e-02  6.4780e-03  1.3218e-02  3.8095e+01  1.5828e-02  9.5959e-04  9.5825e-04  0:00:07   85
  1916  1.6756e-02  6.5146e-03  1.3111e-02  3.7748e+01  1.6750e-02  9.7445e-04  9.7599e-04  0:00:22   84
  1917  1.8164e-02  6.5005e-03  1.2979e-02  3.8284e+01  1.8158e-02  9.9241e-04  9.8641e-04  0:00:18   83
  1918  1.9831e-02  6.4126e-03  1.2824e-02  3.8733e+01  1.9826e-02  9.9271e-04  9.9683e-04  0:00:14   82
  1919  2.1199e-02  6.2644e-03  1.2759e-02  3.9272e+01  2.1193e-02  1.0326e-03  1.0076e-03  0:00:11   81
  1920  2.2432e-02  6.1401e-03  1.2827e-02  3.9701e+01  2.2426e-02  1.0407e-03  1.0101e-03  0:00:09   80
  1921  2.3050e-02  6.0335e-03  1.2870e-02  4.0327e+01  2.3043e-02  1.0448e-03  1.0020e-03  0:00:07   79
  1922  2.2439e-02  5.9276e-03  1.3182e-02  4.1310e+01  2.2433e-02  1.0588e-03  1.0051e-03  0:00:05   78
  1923  2.1570e-02  5.8699e-03  1.3663e-02  4.2647e+01  2.1564e-02  1.0837e-03  1.0098e-03  0:00:20   77
  1924  1.9978e-02  5.8923e-03  1.4017e-02  4.4069e+01  1.9972e-02  1.0805e-03  1.0182e-03  0:00:16   76
  1925  1.8520e-02  5.9430e-03  1.4257e-02  4.5381e+01  1.8514e-02  1.0772e-03  1.0295e-03  0:00:12   75

  iter  continuity  x-velocity  y-velocity  z-velocity      energy           k       omega     time/iter
  1926  1.7538e-02  5.9261e-03  1.4282e-02  4.5981e+01  1.7532e-02  1.0832e-03  1.0345e-03  0:00:10   74
  1927  1.7281e-02  5.9128e-03  1.4219e-02  4.6492e+01  1.7275e-02  1.0864e-03  1.0390e-03  0:00:08   73
  1928  1.7364e-02  5.8623e-03  1.4051e-02  4.7409e+01  1.7359e-02  1.0662e-03  1.0488e-03  0:00:06   72
  1929  1.7871e-02  5.8624e-03  1.3839e-02  4.7208e+01  1.7865e-02  1.0575e-03  1.0549e-03  0:00:05   71
  1930  1.8426e-02  5.8074e-03  1.3461e-02  4.7069e+01  1.8420e-02  1.0460e-03  1.0407e-03  0:00:18   70
  1931  1.9216e-02  5.7442e-03  1.3190e-02  4.6754e+01  1.9210e-02  1.0405e-03  1.0152e-03  0:00:14   69
  1932  1.9837e-02  5.7350e-03  1.3020e-02  4.5445e+01  1.9831e-02  1.0317e-03  9.9842e-04  0:00:11   68
  1933  2.0043e-02  5.7414e-03  1.2816e-02  4.4454e+01  2.0037e-02  1.0021e-03  9.7886e-04  0:00:09   67
  1934  1.9765e-02  5.7856e-03  1.2807e-02  4.3480e+01  1.9758e-02  9.8158e-04  9.5691e-04  0:00:07   66
  1935  1.8992e-02  5.8717e-03  1.3019e-02  4.2905e+01  1.8985e-02  9.8729e-04  9.3617e-04  0:00:05   65
  1936  1.7524e-02  6.0171e-03  1.3136e-02  4.2570e+01  1.7517e-02  9.8187e-04  9.3618e-04  0:00:17   64

  iter  continuity  x-velocity  y-velocity  z-velocity      energy           k       omega     time/iter
  1937  1.6240e-02  6.2414e-03  1.3231e-02  4.2660e+01  1.6234e-02  9.4847e-04  9.4745e-04  0:00:13   63
  1938  1.5362e-02  6.3887e-03  1.3296e-02  4.2123e+01  1.5356e-02  9.4950e-04  9.4865e-04  0:00:11   62
  1939  1.5511e-02  6.4784e-03  1.3260e-02  4.2126e+01  1.5505e-02  9.5750e-04  9.5907e-04  0:00:08   61
  1940  1.6294e-02  6.5038e-03  1.3148e-02  4.2248e+01  1.6288e-02  9.6535e-04  9.6086e-04  0:00:07   60
  1941  1.7593e-02  6.5242e-03  1.3025e-02  4.2726e+01  1.7588e-02  9.8706e-04  9.8428e-04  0:00:05   59
  1942  1.9087e-02  6.4554e-03  1.2885e-02  4.3140e+01  1.9082e-02  9.9125e-04  9.9357e-04  0:00:04   58
  1943  2.0603e-02  6.3176e-03  1.2753e-02  4.3706e+01  2.0597e-02  1.0145e-03  1.0054e-03  0:00:15   57
  1944  2.1886e-02  6.1863e-03  1.2794e-02  4.3718e+01  2.1880e-02  1.0454e-03  1.0078e-03  0:00:11   56
  1945  2.2920e-02  6.0747e-03  1.2849e-02  4.3577e+01  2.2913e-02  1.0433e-03  1.0116e-03  0:00:09   55
  1946  2.2759e-02  5.9728e-03  1.3009e-02  4.4068e+01  2.2753e-02  1.0477e-03  1.0030e-03  0:00:07   54
  1947  2.2070e-02  5.8952e-03  1.3479e-02  4.4552e+01  2.2063e-02  1.0796e-03  1.0154e-03  0:00:06   53

  iter  continuity  x-velocity  y-velocity  z-velocity      energy           k       omega     time/iter
  1948  2.0686e-02  5.8728e-03  1.3885e-02  4.6415e+01  2.0679e-02  1.0789e-03  1.0171e-03  0:00:04   52
  1949  1.9150e-02  5.9176e-03  1.4183e-02  4.7868e+01  1.9144e-02  1.0827e-03  1.0240e-03  0:00:14   51
  1950  1.7883e-02  5.9318e-03  1.4286e-02  4.8477e+01  1.7878e-02  1.0791e-03  1.0332e-03  0:00:11   50
  1951  1.7312e-02  5.9144e-03  1.4292e-02  4.9149e+01  1.7306e-02  1.0877e-03  1.0331e-03  0:00:08   49
  1952  1.7443e-02  5.8914e-03  1.4162e-02  5.0413e+01  1.7438e-02  1.0702e-03  1.0454e-03  0:00:07   48
  1953  1.7685e-02  5.8538e-03  1.3959e-02  5.0503e+01  1.7679e-02  1.0683e-03  1.0538e-03  0:00:05   47
  1954  1.8144e-02  5.8449e-03  1.3646e-02  5.0668e+01  1.8138e-02  1.0452e-03  1.0491e-03  0:00:04   46
  1955  1.8964e-02  5.7650e-03  1.3277e-02  5.0664e+01  1.8958e-02  1.0403e-03  1.0232e-03  0:00:03   45
  1956  1.9616e-02  5.7336e-03  1.3109e-02  4.9487e+01  1.9610e-02  1.0298e-03  1.0061e-03  0:00:11   44
  1957  2.0051e-02  5.7329e-03  1.2889e-02  4.7990e+01  2.0044e-02  1.0147e-03  9.8583e-04  0:00:09   43
  1958  1.9940e-02  5.7494e-03  1.2800e-02  4.7162e+01  1.9933e-02  9.8754e-04  9.6577e-04  0:00:07   42

  iter  continuity  x-velocity  y-velocity  z-velocity      energy           k       omega     time/iter
  1959  1.9409e-02  5.8314e-03  1.2934e-02  4.5997e+01  1.9402e-02  9.8118e-04  9.4354e-04  0:00:05   41
  1960  1.8128e-02  5.9462e-03  1.3112e-02  4.5341e+01  1.8121e-02  9.8649e-04  9.3255e-04  0:00:04   40
  1961  1.6755e-02  6.1585e-03  1.3218e-02  4.5542e+01  1.6749e-02  9.6265e-04  9.4588e-04  0:00:03   39
  1962  1.5686e-02  6.3412e-03  1.3280e-02  4.5408e+01  1.5680e-02  9.4133e-04  9.4474e-04  0:00:10   38
  1963  1.5300e-02  6.4457e-03  1.3295e-02  4.5294e+01  1.5294e-02  9.5743e-04  9.5553e-04  0:00:08   37
  1964  1.5969e-02  6.4868e-03  1.3215e-02  4.5352e+01  1.5963e-02  9.6084e-04  9.5504e-04  0:00:06   36
  1965  1.6994e-02  6.5238e-03  1.3095e-02  4.5104e+01  1.6988e-02  9.7958e-04  9.7827e-04  0:00:05   35
  1966  1.8396e-02  6.4876e-03  1.2964e-02  4.5497e+01  1.8391e-02  9.9410e-04  9.8778e-04  0:00:04   34
  1967  2.0082e-02  6.3882e-03  1.2803e-02  4.5370e+01  2.0076e-02  9.9741e-04  9.9949e-04  0:00:03   33
  1968  2.1382e-02  6.2482e-03  1.2775e-02  4.5841e+01  2.1376e-02  1.0388e-03  1.0071e-03  0:00:02   32
  1969  2.2638e-02  6.1270e-03  1.2838e-02  4.5971e+01  2.2632e-02  1.0425e-03  1.0078e-03  0:00:08   31

  iter  continuity  x-velocity  y-velocity  z-velocity      energy           k       omega     time/iter
  1970  2.3032e-02  6.0232e-03  1.2889e-02  4.6551e+01  2.3026e-02  1.0504e-03  1.0013e-03  0:00:06   30
  1971  2.2354e-02  5.9181e-03  1.3261e-02  4.7578e+01  2.2347e-02  1.0676e-03  1.0085e-03  0:00:05   29
  1972  2.1314e-02  5.8650e-03  1.3721e-02  4.9997e+01  2.1308e-02  1.0820e-03  1.0112e-03  0:00:04   28
  1973  1.9730e-02  5.9009e-03  1.4060e-02  5.1587e+01  1.9724e-02  1.0818e-03  1.0198e-03  0:00:03   27
  1974  1.8308e-02  5.9434e-03  1.4269e-02  5.2701e+01  1.8302e-02  1.0755e-03  1.0322e-03  0:00:02   26
  1975  1.7446e-02  5.9262e-03  1.4290e-02  5.3614e+01  1.7441e-02  1.0839e-03  1.0348e-03  0:00:07   25
  1976  1.7320e-02  5.9037e-03  1.4202e-02  5.4614e+01  1.7314e-02  1.0828e-03  1.0391e-03  0:00:05   24
  1977  1.7442e-02  5.8544e-03  1.4019e-02  5.5497e+01  1.7436e-02  1.0669e-03  1.0490e-03  0:00:04   23
  1978  1.7939e-02  5.8570e-03  1.3784e-02  5.5370e+01  1.7933e-02  1.0524e-03  1.0553e-03  0:00:03   22
  1979  1.8562e-02  5.7925e-03  1.3392e-02  5.5240e+01  1.8556e-02  1.0439e-03  1.0358e-03  0:00:02   21
  1980  1.9295e-02  5.7410e-03  1.3171e-02  5.4716e+01  1.9289e-02  1.0387e-03  1.0136e-03  0:00:02   20

  iter  continuity  x-velocity  y-velocity  z-velocity      energy           k       omega     time/iter
  1981  1.9931e-02  5.7396e-03  1.2984e-02  5.3438e+01  1.9925e-02  1.0305e-03  9.9352e-04  0:00:05   19
  1982  2.0023e-02  5.7472e-03  1.2797e-02  5.2360e+01  2.0017e-02  9.9641e-04  9.7328e-04  0:00:04   18
  1983  1.9679e-02  5.8017e-03  1.2829e-02  5.1111e+01  1.9673e-02  9.8164e-04  9.5327e-04  0:00:03   17
  1984  1.8785e-02  5.8895e-03  1.3046e-02  5.0745e+01  1.8778e-02  9.8709e-04  9.3504e-04  0:00:02   16
  1985  1.7293e-02  6.0562e-03  1.3157e-02  5.0419e+01  1.7287e-02  9.7710e-04  9.3948e-04  0:00:02   15
  1986  1.6047e-02  6.2734e-03  1.3240e-02  5.0471e+01  1.6041e-02  9.4379e-04  9.4569e-04  0:00:01   14
  1987  1.5295e-02  6.4058e-03  1.3294e-02  5.0170e+01  1.5289e-02  9.5374e-04  9.5189e-04  0:00:04   13
  1988  1.5627e-02  6.4774e-03  1.3242e-02  4.9926e+01  1.5621e-02  9.5722e-04  9.6027e-04  0:00:03   12
  1989  1.6468e-02  6.5051e-03  1.3136e-02  5.0016e+01  1.6462e-02  9.6752e-04  9.6845e-04  0:00:02   11
  1990  1.7824e-02  6.5161e-03  1.3005e-02  5.0296e+01  1.7819e-02  9.8867e-04  9.8485e-04  0:00:01   10
  1991  1.9412e-02  6.4396e-03  1.2861e-02  5.0256e+01  1.9406e-02  9.9068e-04  9.9618e-04  0:00:01    9

  iter  continuity  x-velocity  y-velocity  z-velocity      energy           k       omega     time/iter
  1992  2.0864e-02  6.2962e-03  1.2749e-02  5.0625e+01  2.0858e-02  1.0221e-03  1.0068e-03  0:00:01    8
  1993  2.2126e-02  6.1645e-03  1.2797e-02  5.0902e+01  2.2120e-02  1.0440e-03  1.0096e-03  0:00:00    7
  1994  2.3005e-02  6.0544e-03  1.2859e-02  5.1148e+01  2.2999e-02  1.0415e-03  1.0099e-03  0:00:02    6
  1995  2.2621e-02  5.9523e-03  1.3073e-02  5.1953e+01  2.2615e-02  1.0466e-03  1.0038e-03  0:00:01    5
  1996  2.1925e-02  5.8825e-03  1.3558e-02  5.2525e+01  2.1919e-02  1.0830e-03  1.0133e-03  0:00:01    4
  1997  2.0417e-02  5.8807e-03  1.3940e-02  5.4253e+01  2.0410e-02  1.0792e-03  1.0188e-03  0:00:00    3
  1998  1.8917e-02  5.9255e-03  1.4221e-02  5.5951e+01  1.8911e-02  1.0812e-03  1.0263e-03  0:00:00    2
  1999  1.7725e-02  5.9291e-03  1.4286e-02  5.7018e+01  1.7720e-02  1.0808e-03  1.0328e-03  0:00:00    1
  2000  1.7273e-02  5.9127e-03  1.4267e-02  5.7747e+01  1.7267e-02  1.0879e-03  1.0352e-03  0:00:00    0

> 
adjoint/                parallel/               server/
define/                 parametric-study/       solve/
display/                plot/                   surface/
exit                    preferences/            turbo-workflow/
file/                   print-license-usage     views/
mesh/                   report/

> /file/write-case-data project1
Fast-loading "C:\PROGRA~1\ANSYSI~1\v231\fluent\fluent23.1.0\\addons\afd\lib\hdfio.bin"
Done.

Writing to Engs-30669:"C:\Users\kebl7595\Desktop\CFD\Runs\Flap\Shallower Aspect Ratio\0 degrees\project1.cas.h5" in NODE0 mode and compression level 1 ...
       19422 cells,     1 zone  ...
       65325 faces,     7 zones ...
       26676 nodes,     1 zone  ...
  Done.
Done.

Writing to Engs-30669:"C:\Users\kebl7595\Desktop\CFD\Runs\Flap\Shallower Aspect Ratio\0 degrees\project1.dat.h5" in NODE0 mode and compression level 1 ...
  Writing results.
Done.

> /file/export/ascii "./surface.dat" wing () no pressure mach-number quit no

Writing "./surface.dat"...

Writing information to ascii file ...
Done.


> /report/forces/wall-forces y -0. -1 0 y "Lift"

> /report/forces/wall-forces y 1 -0. 0 y "Drag"

> /exit

Posting ANSYS Product Improvement Program performance data 
Done.
Auto-Transcript Stop Time:  11:10:17, 22 May 2024 GMT Daylight Time 
Total Transcript Time: 4 Minute 0 Second.
