Auto-Transcript Start Time:  13:56:37, 21 May 2024 GMT Daylight Time 
Current Directory: "C:\Users\kebl7595\Desktop\CFD\Runs\Viscous\Mach 0.3\6 degrees"

              Welcome to ANSYS Fluent 2023 R1

              Copyright 1987-2023 ANSYS, Inc. All Rights Reserved.
              Unauthorized use, distribution or duplication is prohibited.
              This product is subject to U.S. laws governing export and re-export.
              For full Legal Notice, see documentation.

Build Time: Nov 28 2022 09:52:02 EST  Build Id: 10208  
 
Connected License Server List:	1055@ansyslic.eng.ox.ac.uk

*********************************************
Info: Your license enables 4-way parallel execution.
For faster simulations, please start the application with the appropriate parallel options.
*********************************************


     --------------------------------------------------------------
     This is an academic version of ANSYS FLUENT. Usage of this product
     license is limited to the terms and conditions specified in your ANSYS
     license form, additional terms section.
     --------------------------------------------------------------
Host spawning Node 0 on machine "Engs-30669" (win64).

------------------------------------------------------------------------------------
ID    Hostname    Core  O.S.         PID    Vendor                                 
------------------------------------------------------------------------------------
n0    Engs-30669  1/32  Windows-x64  12776  13th Gen Intel(R) Core(TM) i9-13900    
host  Engs-30669        Windows-x64  50192  13th Gen Intel(R) Core(TM) i9-13900    

MPI Option Selected: intel
------------------------------------------------------------------------------------

Cleanup script file is C:\\Users\\kebl7595\\Desktop\\CFD\\Runs\\Viscous\\Mach 0.3\\6 degrees\\cleanup-fluent-Engs-30669-50192.bat
QA Service Message :
QA Services Agreement Enabled. This application is included in the scope of an ANSYS QA Services Agreement.
Posting ANSYS Product Improvement Program startup data
Done.

Reading journal file C:/Users/kebl7595/Desktop/CFD/Runs/Viscous/Mach 0.3/6 degrees/project1.jou...

> /file/set-batch-options no no no 

> 
define/                 parametric-study/       solve/
display/                plot/                   surface/
exit                    preferences/            switch-to-meshing-mode
file/                   print-license-usage     turbo-workflow/
mesh/                   report/                 views/
parallel/               server/

> /file/import/cgns/mesh  "./project1.cgns"
Engs-30669 has other FLUENT parallel processes running.                       Process affinity not being set.

Importing "./project1.cgns"

Opening library "C:\\PROGRA~1\\ANSYSI~1\\v231\\fluent\\fluent23.1.0\\vki\\win64\\devtools4.4.6.dll"... done.

Read    17864 nodes
   12996 hexahedral cells, zone  1
    9462 quadrilateral wall faces, zone  2.
   33972 quadrilateral interior faces, zone  3.
     282 quadrilateral interface faces, zone  4.
       6 quadrilateral wall faces, zone  5.

Building...
     mesh
     materials,
     interface,
     domains,
     zones,
	default_exterior-1
	interface-default_subface
	default_interior-1
	default_subface
	default
     parallel,
The automatic selection for flux type has changed to Rhie-Chow: momentum based.

Done.


> 
adjoint/                parallel/               server/
define/                 parametric-study/       solve/
display/                plot/                   surface/
exit                    preferences/            turbo-workflow/
file/                   print-license-usage     views/
mesh/                   report/

> /define/models/solver/density-based-implicit yes

> 
adjoint/                parallel/               server/
define/                 parametric-study/       solve/
display/                plot/                   surface/
exit                    preferences/            turbo-workflow/
file/                   print-license-usage     views/
mesh/                   report/

> /define/models/energy? yes yes invalid command [yes]
yes

> /define/models/viscous/kw-standard? yes

> 
adjoint/                parallel/               server/
define/                 parametric-study/       solve/
display/                plot/                   surface/
exit                    preferences/            turbo-workflow/
file/                   print-license-usage     views/
mesh/                   report/

> /define/materials/change-create air air air is a fluid
yes 
Density
ideal-gas no data required.

no no no no no no

> 
adjoint/                parallel/               server/
define/                 parametric-study/       solve/
display/                plot/                   surface/
exit                    preferences/            turbo-workflow/
file/                   print-license-usage     views/
mesh/                   report/

> /mesh/modify-zones/sep-face-zone-angle 2 90 yes

 4332 faces in contiguous region 0
 228 faces in contiguous region 1
 342 faces in contiguous region 2
 4332 faces in contiguous region 3
 228 faces in contiguous region 4
 Separates zone 2 into 5 zone(s).
Updating new zone information...
   created new zone default_subface:010 from default_subface
   created new zone default_subface:009 from default_subface
   created new zone default_subface:008 from default_subface
   created new zone default_subface:007 from default_subface
done.

> 
adjoint/                parallel/               server/
define/                 parametric-study/       solve/
display/                plot/                   surface/
exit                    preferences/            turbo-workflow/
file/                   print-license-usage     views/
mesh/                   report/

> /define/boundary-conditions/zone-name  5   te

> /define/boundary-conditions/zone-name  7 wing

> /define/boundary-conditions/zone-name  2 sym1

> /define/boundary-conditions/zone-name  9 sym2

> 
adjoint/                parallel/               server/
define/                 parametric-study/       solve/
display/                plot/                   surface/
exit                    preferences/            turbo-workflow/
file/                   print-license-usage     views/
mesh/                   report/

> /define/boundary-conditions/zone-name  8 far1

> /define/boundary-conditions/zone-name 10 far2

> 
adjoint/                parallel/               server/
define/                 parametric-study/       solve/
display/                plot/                   surface/
exit                    preferences/            turbo-workflow/
file/                   print-license-usage     views/
mesh/                   report/

> /define/boundary-conditions/zone-type  8 pressure-far-field

> /define/boundary-conditions/zone-type 10 pressure-far-field

> /define/boundary-conditions/zone-type  2 symmetry

> /define/boundary-conditions/zone-type  9 symmetry

> 
adjoint/                parallel/               server/
define/                 parametric-study/       solve/
display/                plot/                   surface/
exit                    preferences/            turbo-workflow/
file/                   print-license-usage     views/
mesh/                   report/

> /define/boundary-conditions/pressure-far-field (far2 far1)
far1 no 0 no 0.3 no 300 yes no 0.99452 no 0.10453 no 0. no yes 5 0.02

> /define/boundary-conditions/pressure-far-field (far2 far1)
far2 no 0 no 0.3 no 300 yes no 0.99452 no 0.10453 no 0. no yes 5 0.02

> 
adjoint/                parallel/               server/
define/                 parametric-study/       solve/
display/                plot/                   surface/
exit                    preferences/            turbo-workflow/
file/                   print-license-usage     views/
mesh/                   report/

> /solve/initialize/compute-defaults/pressure-far-field (far2 far1)
far1

> /solve/initialize/initialize-flow

> 
adjoint/                parallel/               server/
define/                 parametric-study/       solve/
display/                plot/                   surface/
exit                    preferences/            turbo-workflow/
file/                   print-license-usage     views/
mesh/                   report/

> /solve/monitors/residual/convergence-criteria 1.e-9 1.e-9 1.e-9 1.e-9 1.e-9 1.e-9 1.e-9

> /solve/iterate 2000

  iter  continuity  x-velocity  y-velocity  z-velocity      energy           k       omega     time/iter
     1  1.0000e+00  1.0000e+00  1.0000e+00  1.0000e+00  1.0000e+00  1.7285e-01  1.2710e-01  0:33:19 1999
     2  5.0002e-01  3.9158e-01  4.4690e-01  1.0000e+00  5.0531e-01  1.3315e-01  1.0227e-01  0:26:38 1998
     3  2.8029e-01  2.1736e-01  2.3767e-01  8.2299e-01  2.8180e-01  1.0596e-01  8.4712e-02  0:21:18 1997
     4  1.8571e-01  1.7559e-01  1.5552e-01  5.0199e-01  1.8616e-01  8.7074e-02  7.1519e-02  0:17:02 1996
     5  1.4036e-01  1.3843e-01  1.0773e-01  8.2638e-01  1.4089e-01  7.4399e-02  6.1519e-02  0:13:37 1995
     6  1.1766e-01  1.0105e-01  7.6444e-02  1.0332e+00  1.1863e-01  6.4802e-02  5.4155e-02  0:10:53 1994
     7  1.0336e-01  7.5303e-02  5.6285e-02  1.0068e+00  1.0471e-01  5.7058e-02  4.8284e-02  0:08:42 1993
     8  9.1160e-02  5.7765e-02  4.3655e-02  8.5949e-01  9.2682e-02  5.0659e-02  4.3412e-02  0:06:58 1992
     9  8.0412e-02  4.6260e-02  3.5615e-02  7.5259e-01  8.1943e-02  4.5321e-02  3.9292e-02  0:05:34 1991
    10  7.1101e-02  3.8823e-02  3.0156e-02  6.8783e-01  7.2548e-02  4.0858e-02  3.5767e-02  0:11:05 1990
    11  6.3409e-02  3.4071e-02  2.6094e-02  6.6187e-01  6.4729e-02  3.7149e-02  3.2729e-02  0:08:52 1989

  iter  continuity  x-velocity  y-velocity  z-velocity      energy           k       omega     time/iter
    12  5.7347e-02  3.1321e-02  2.2804e-02  6.9053e-01  5.8536e-02  3.4031e-02  3.0103e-02  0:07:05 1988
    13  5.2865e-02  3.0111e-02  2.0027e-02  7.9225e-01  5.3938e-02  3.1354e-02  2.7850e-02  0:05:40 1987
    14  4.9813e-02  2.9711e-02  1.7709e-02  9.7530e-01  5.0787e-02  2.9023e-02  2.5872e-02  0:04:32 1986
    15  4.8011e-02  2.9845e-02  1.5824e-02  1.2420e+00  4.8903e-02  2.6988e-02  2.4117e-02  0:03:37 1985
    16  4.7210e-02  3.0363e-02  1.4403e-02  1.5844e+00  4.8032e-02  2.5196e-02  2.2555e-02  0:02:54 1984
    17  4.7180e-02  3.1279e-02  1.3401e-02  1.9901e+00  4.7944e-02  2.3619e-02  2.1168e-02  0:02:19 1983
    18  4.7703e-02  3.2466e-02  1.2786e-02  2.4439e+00  4.8413e-02  2.2201e-02  1.9917e-02  0:01:51 1982
    19  4.8595e-02  3.3816e-02  1.2482e-02  2.9271e+00  4.9253e-02  2.0923e-02  1.8782e-02  0:01:29 1981
    20  4.9693e-02  3.5203e-02  1.2428e-02  3.4167e+00  5.0299e-02  1.9764e-02  1.7749e-02  0:07:47 1980
    21  5.0845e-02  3.6502e-02  1.2603e-02  3.8866e+00  5.1392e-02  1.8704e-02  1.6809e-02  0:06:13 1979
    22  5.1899e-02  3.7581e-02  1.2929e-02  4.3109e+00  5.2380e-02  1.7726e-02  1.5951e-02  0:04:59 1978

  iter  continuity  x-velocity  y-velocity  z-velocity      energy           k       omega     time/iter
    23  5.2744e-02  3.8380e-02  1.3427e-02  4.6648e+00  5.3151e-02  1.6822e-02  1.5156e-02  0:03:59 1977
    24  5.3276e-02  3.8829e-02  1.4019e-02  4.9259e+00  5.3601e-02  1.5986e-02  1.4426e-02  0:03:11 1976
    25  5.3422e-02  3.8912e-02  1.4684e-02  5.0756e+00  5.3660e-02  1.5208e-02  1.3751e-02  0:02:33 1975
    26  5.3125e-02  3.8598e-02  1.5322e-02  5.1025e+00  5.3271e-02  1.4483e-02  1.3125e-02  0:02:02 1974
    27  5.2369e-02  3.7950e-02  1.5914e-02  4.9991e+00  5.2421e-02  1.3812e-02  1.2539e-02  0:01:38 1973
    28  5.1153e-02  3.7019e-02  1.6412e-02  4.7709e+00  5.1113e-02  1.3189e-02  1.1988e-02  0:01:18 1972
    29  4.9491e-02  3.5734e-02  1.6858e-02  4.4198e+00  4.9363e-02  1.2617e-02  1.1474e-02  0:01:02 1971
    30  4.7408e-02  3.4244e-02  1.7169e-02  4.0111e+00  4.7199e-02  1.2088e-02  1.0990e-02  0:00:50 1970
    31  4.4941e-02  3.2591e-02  1.7392e-02  3.5449e+00  4.4660e-02  1.1592e-02  1.0538e-02  0:00:40 1969
    32  4.2151e-02  3.0994e-02  1.7521e-02  3.0665e+00  4.1807e-02  1.1126e-02  1.0115e-02  0:00:32 1968
    33  3.9091e-02  2.9534e-02  1.7601e-02  2.6709e+00  3.8697e-02  1.0682e-02  9.7205e-03  0:06:59 1967

  iter  continuity  x-velocity  y-velocity  z-velocity      energy           k       omega     time/iter
    34  3.5819e-02  2.8153e-02  1.7704e-02  2.4487e+00  3.5387e-02  1.0261e-02  9.3407e-03  0:05:35 1966
    35  3.2366e-02  2.6931e-02  1.7815e-02  2.5040e+00  3.1907e-02  9.8713e-03  8.9772e-03  0:04:28 1965
    36  2.8801e-02  2.6072e-02  1.7929e-02  2.7862e+00  2.8326e-02  9.5067e-03  8.6286e-03  0:03:34 1964
    37  2.5168e-02  2.5402e-02  1.8109e-02  3.2128e+00  2.4686e-02  9.1634e-03  8.2961e-03  0:02:51 1963
    38  2.1552e-02  2.5089e-02  1.8377e-02  3.7192e+00  2.1069e-02  8.8363e-03  7.9780e-03  0:02:17 1962
    39  1.8030e-02  2.5064e-02  1.8722e-02  4.2607e+00  1.7551e-02  8.5227e-03  7.6758e-03  0:01:49 1961
    40  1.4690e-02  2.5332e-02  1.9114e-02  4.7798e+00  1.4218e-02  8.2235e-03  7.3846e-03  0:01:28 1960
    41  1.1645e-02  2.5830e-02  1.9523e-02  5.2623e+00  1.1179e-02  7.9341e-03  7.1098e-03  0:01:10 1959
    42  9.0610e-03  2.6449e-02  1.9924e-02  5.6896e+00  8.6044e-03  7.6640e-03  6.8557e-03  0:00:56 1958
    43  7.2185e-03  2.7141e-02  2.0273e-02  6.0557e+00  6.7889e-03  7.4168e-03  6.5978e-03  0:00:45 1957
    44  6.4730e-03  2.7920e-02  2.0553e-02  6.3396e+00  6.1199e-03  7.1874e-03  6.3602e-03  0:00:36 1956

  iter  continuity  x-velocity  y-velocity  z-velocity      energy           k       omega     time/iter
    45  6.8781e-03  2.8650e-02  2.0761e-02  6.5202e+00  6.6329e-03  6.9752e-03  6.1346e-03  0:07:00 1955
    46  8.0217e-03  2.9292e-02  2.0882e-02  6.5807e+00  7.8611e-03  6.7627e-03  5.9070e-03  0:05:36 1954
    47  9.4532e-03  2.9823e-02  2.0903e-02  6.5132e+00  9.3425e-03  6.5578e-03  5.6879e-03  0:04:28 1953
    48  1.0913e-02  3.0219e-02  2.0817e-02  6.2939e+00  1.0828e-02  6.3589e-03  5.4717e-03  0:03:35 1952
    49  1.2282e-02  3.0471e-02  2.0623e-02  6.0319e+00  1.2211e-02  6.1632e-03  5.2614e-03  0:02:52 1951
    50  1.3507e-02  3.0565e-02  2.0324e-02  5.6796e+00  1.3443e-02  5.9677e-03  5.0585e-03  0:02:17 1950
    51  1.4567e-02  3.0495e-02  1.9927e-02  5.2391e+00  1.4506e-02  5.7672e-03  4.8577e-03  0:01:50 1949
    52  1.5460e-02  3.0284e-02  1.9448e-02  4.6971e+00  1.5401e-02  5.5686e-03  4.6566e-03  0:01:28 1948
    53  1.6186e-02  2.9941e-02  1.8901e-02  4.0962e+00  1.6128e-02  5.3763e-03  4.4589e-03  0:01:10 1947
    54  1.6751e-02  2.9488e-02  1.8295e-02  3.4897e+00  1.6695e-02  5.1876e-03  4.2668e-03  0:00:56 1946
    55  1.7163e-02  2.8917e-02  1.7651e-02  2.9252e+00  1.7109e-02  5.0001e-03  4.0835e-03  0:00:45 1945

  iter  continuity  x-velocity  y-velocity  z-velocity      energy           k       omega     time/iter
    56  1.7433e-02  2.8243e-02  1.6976e-02  2.5105e+00  1.7381e-02  4.8223e-03  3.9097e-03  0:00:36 1944
    57  1.7570e-02  2.7489e-02  1.6282e-02  2.3620e+00  1.7521e-02  4.6669e-03  3.7602e-03  0:06:57 1943
    58  1.7587e-02  2.6667e-02  1.5576e-02  2.5085e+00  1.7542e-02  4.5784e-03  3.6445e-03  0:05:34 1942
    59  1.7493e-02  2.5792e-02  1.4864e-02  2.9044e+00  1.7451e-02  4.5122e-03  3.5474e-03  0:04:27 1941
    60  1.7294e-02  2.4860e-02  1.4156e-02  3.4416e+00  1.7255e-02  4.4604e-03  3.4629e-03  0:03:33 1940
    61  1.6999e-02  2.3870e-02  1.3457e-02  4.0330e+00  1.6963e-02  4.4169e-03  3.3839e-03  0:02:51 1939
    62  1.6619e-02  2.2847e-02  1.2769e-02  4.6196e+00  1.6586e-02  4.3854e-03  3.3109e-03  0:02:16 1938
    63  1.6160e-02  2.1803e-02  1.2087e-02  5.1502e+00  1.6129e-02  4.3573e-03  3.2419e-03  0:01:49 1937
    64  1.5625e-02  2.0763e-02  1.1412e-02  5.6038e+00  1.5596e-02  4.3249e-03  3.1782e-03  0:01:27 1936
    65  1.5021e-02  1.9720e-02  1.0750e-02  5.9734e+00  1.4992e-02  4.2863e-03  3.1178e-03  0:01:10 1935
    66  1.4350e-02  1.8651e-02  1.0108e-02  6.2556e+00  1.4323e-02  4.2487e-03  3.0560e-03  0:00:56 1934

  iter  continuity  x-velocity  y-velocity  z-velocity      energy           k       omega     time/iter
    67  1.3615e-02  1.7583e-02  9.4801e-03  6.4639e+00  1.3587e-02  4.2125e-03  2.9923e-03  0:00:45 1933
    68  1.2821e-02  1.6534e-02  8.8731e-03  6.5724e+00  1.2792e-02  4.1697e-03  2.9326e-03  0:00:36 1932
    69  1.1974e-02  1.5526e-02  8.2876e-03  6.5376e+00  1.1943e-02  4.1242e-03  2.8793e-03  0:00:28 1931
    70  1.1083e-02  1.4576e-02  7.7242e-03  6.3760e+00  1.1050e-02  4.0727e-03  2.8218e-03  0:00:23 1930
    71  1.0154e-02  1.3686e-02  7.1810e-03  6.0922e+00  1.0118e-02  4.0149e-03  2.7691e-03  0:06:44 1929
    72  9.1961e-03  1.2870e-02  6.6637e-03  5.7709e+00  9.1558e-03  3.9419e-03  2.7046e-03  0:05:23 1928
    73  8.2201e-03  1.2151e-02  6.1755e-03  5.3936e+00  8.1750e-03  3.8715e-03  2.6429e-03  0:04:18 1927
    74  7.2422e-03  1.1552e-02  5.7153e-03  4.9564e+00  7.1914e-03  3.7921e-03  2.5776e-03  0:03:27 1926
    75  6.2811e-03  1.1096e-02  5.2738e-03  4.4577e+00  6.2234e-03  3.7069e-03  2.5148e-03  0:02:45 1925
    76  5.3756e-03  1.0778e-02  4.8593e-03  3.9345e+00  5.3100e-03  3.6173e-03  2.4507e-03  0:02:12 1924
    77  4.5946e-03  1.0595e-02  4.4816e-03  3.4274e+00  4.5203e-03  3.5225e-03  2.3826e-03  0:01:46 1923

  iter  continuity  x-velocity  y-velocity  z-velocity      energy           k       omega     time/iter
    78  4.0394e-03  1.0537e-02  4.1525e-03  2.9906e+00  3.9582e-03  3.4274e-03  2.3092e-03  0:01:24 1922
    79  3.8344e-03  1.0612e-02  3.8670e-03  2.6812e+00  3.7523e-03  3.3294e-03  2.2362e-03  0:01:08 1921
    80  4.0837e-03  1.0789e-02  3.6373e-03  2.5602e+00  4.0095e-03  3.2297e-03  2.1701e-03  0:00:54 1920
    81  4.7477e-03  1.1032e-02  3.4581e-03  2.6640e+00  4.6852e-03  3.1342e-03  2.1030e-03  0:00:43 1919
    82  5.6938e-03  1.1315e-02  3.3256e-03  2.9684e+00  5.6411e-03  3.0350e-03  2.0300e-03  0:00:35 1918
    83  6.8332e-03  1.1625e-02  3.2393e-03  3.4042e+00  6.7870e-03  2.9437e-03  1.9622e-03  0:06:51 1917
    84  8.0942e-03  1.1931e-02  3.1726e-03  3.9109e+00  8.0513e-03  2.8674e-03  1.9000e-03  0:05:29 1916
    85  9.4444e-03  1.2242e-02  3.1515e-03  4.4338e+00  9.4023e-03  2.8231e-03  1.8520e-03  0:04:23 1915
    86  1.0841e-02  1.2505e-02  3.1387e-03  4.9301e+00  1.0798e-02  2.8110e-03  1.8313e-03  0:03:30 1914
    87  1.2264e-02  1.2747e-02  3.1572e-03  5.3742e+00  1.2218e-02  2.8051e-03  1.8180e-03  0:02:48 1913
    88  1.3695e-02  1.2987e-02  3.2050e-03  5.7559e+00  1.3644e-02  2.8008e-03  1.8091e-03  0:02:14 1912

  iter  continuity  x-velocity  y-velocity  z-velocity      energy           k       omega     time/iter
    89  1.5086e-02  1.3170e-02  3.2863e-03  6.0435e+00  1.5030e-02  2.8086e-03  1.7976e-03  0:01:47 1911
    90  1.6375e-02  1.3271e-02  3.3868e-03  6.2411e+00  1.6312e-02  2.8292e-03  1.7830e-03  0:01:26 1910
    91  1.7505e-02  1.3275e-02  3.5057e-03  6.3456e+00  1.7432e-02  2.8571e-03  1.7701e-03  0:01:09 1909
    92  1.8433e-02  1.3191e-02  3.6405e-03  6.3497e+00  1.8349e-02  2.8830e-03  1.7583e-03  0:00:55 1908
    93  1.9150e-02  1.3038e-02  3.7805e-03  6.2755e+00  1.9053e-02  2.9127e-03  1.7544e-03  0:00:44 1907
    94  1.9649e-02  1.2833e-02  3.9173e-03  6.0987e+00  1.9539e-02  2.9266e-03  1.7411e-03  0:00:35 1906
    95  1.9941e-02  1.2584e-02  4.0443e-03  5.8460e+00  1.9817e-02  2.9419e-03  1.7282e-03  0:00:28 1905
    96  2.0030e-02  1.2299e-02  4.1611e-03  5.5319e+00  1.9892e-02  2.9581e-03  1.7071e-03  0:06:43 1904
    97  1.9914e-02  1.1992e-02  4.2669e-03  5.1592e+00  1.9762e-02  2.9721e-03  1.6927e-03  0:05:22 1903
    98  1.9622e-02  1.1669e-02  4.3622e-03  4.7297e+00  1.9457e-02  2.9878e-03  1.6766e-03  0:04:18 1902
    99  1.9171e-02  1.1361e-02  4.4594e-03  4.2243e+00  1.8993e-02  2.9990e-03  1.6653e-03  0:03:26 1901

  iter  continuity  x-velocity  y-velocity  z-velocity      energy           k       omega     time/iter
   100  1.8575e-02  1.1094e-02  4.5663e-03  3.6727e+00  1.8385e-02  3.0079e-03  1.6550e-03  0:02:45 1900
   101  1.7846e-02  1.0880e-02  4.6934e-03  3.1353e+00  1.7647e-02  3.0090e-03  1.6423e-03  0:02:12 1899
   102  1.6987e-02  1.0724e-02  4.8418e-03  2.6167e+00  1.6780e-02  3.0067e-03  1.6334e-03  0:01:45 1898
   103  1.6006e-02  1.0628e-02  5.0117e-03  2.1735e+00  1.5792e-02  2.9980e-03  1.6261e-03  0:01:24 1897
   104  1.4891e-02  1.0617e-02  5.1930e-03  1.8835e+00  1.4671e-02  2.9906e-03  1.6097e-03  0:01:07 1896
   105  1.3677e-02  1.0700e-02  5.3824e-03  1.8408e+00  1.3452e-02  2.9801e-03  1.5935e-03  0:00:54 1895
   106  1.2395e-02  1.0874e-02  5.5738e-03  2.0456e+00  1.2168e-02  2.9627e-03  1.5795e-03  0:00:43 1894
   107  1.1108e-02  1.1139e-02  5.7649e-03  2.4105e+00  1.0880e-02  2.9455e-03  1.5714e-03  0:00:34 1893
   108  9.8106e-03  1.1457e-02  5.9581e-03  2.8472e+00  9.5827e-03  2.9130e-03  1.5518e-03  0:06:46 1892
   109  8.5189e-03  1.1801e-02  6.1434e-03  3.2949e+00  8.2928e-03  2.8833e-03  1.5382e-03  0:05:25 1891
   110  7.2367e-03  1.2168e-02  6.3142e-03  3.7179e+00  7.0133e-03  2.8500e-03  1.5218e-03  0:04:20 1890

  iter  continuity  x-velocity  y-velocity  z-velocity      energy           k       omega     time/iter
   111  5.9870e-03  1.2538e-02  6.4623e-03  4.0922e+00  5.7670e-03  2.8151e-03  1.4950e-03  0:03:28 1889
   112  4.8224e-03  1.2900e-02  6.5842e-03  4.4093e+00  4.6079e-03  2.7782e-03  1.4653e-03  0:02:46 1888
   113  3.8262e-03  1.3243e-02  6.6777e-03  4.6713e+00  3.6238e-03  2.7387e-03  1.4293e-03  0:02:13 1887
   114  3.1467e-03  1.3552e-02  6.7426e-03  4.8727e+00  2.9755e-03  2.6986e-03  1.4014e-03  0:01:46 1886
   115  2.9508e-03  1.3815e-02  6.7798e-03  5.0166e+00  2.8384e-03  2.6541e-03  1.3726e-03  0:01:25 1885
   116  3.2596e-03  1.4031e-02  6.7859e-03  5.1039e+00  3.2105e-03  2.6037e-03  1.3434e-03  0:01:08 1884
   117  3.8994e-03  1.4215e-02  6.7277e-03  5.1251e+00  3.8932e-03  2.5536e-03  1.3159e-03  0:00:54 1883
   118  4.6890e-03  1.4323e-02  6.6561e-03  5.0940e+00  4.7062e-03  2.5074e-03  1.2884e-03  0:00:43 1882
   119  5.5211e-03  1.4365e-02  6.5584e-03  5.0155e+00  5.5494e-03  2.4694e-03  1.2628e-03  0:06:51 1881
   120  6.3396e-03  1.4353e-02  6.4308e-03  4.8831e+00  6.3722e-03  2.4442e-03  1.2427e-03  0:05:29 1880
   121  7.1133e-03  1.4283e-02  6.2795e-03  4.6886e+00  7.1462e-03  2.4165e-03  1.2306e-03  0:04:23 1879

  iter  continuity  x-velocity  y-velocity  z-velocity      energy           k       omega     time/iter
   122  7.8243e-03  1.4157e-02  6.1043e-03  4.4601e+00  7.8553e-03  2.3869e-03  1.2193e-03  0:03:30 1878
   123  8.4602e-03  1.4088e-02  5.8321e-03  4.1841e+00  8.4885e-03  2.3642e-03  1.2079e-03  0:02:48 1877
   124  9.0176e-03  1.3851e-02  5.6365e-03  3.8836e+00  9.0423e-03  2.3495e-03  1.1970e-03  0:02:14 1876
   125  9.4899e-03  1.3525e-02  5.4484e-03  3.5510e+00  9.5104e-03  2.3355e-03  1.1855e-03  0:01:47 1875
   126  9.8733e-03  1.3153e-02  5.2437e-03  3.1946e+00  9.8894e-03  2.3205e-03  1.1733e-03  0:01:26 1874
   127  1.0165e-02  1.2744e-02  5.0193e-03  2.8268e+00  1.0177e-02  2.3048e-03  1.1588e-03  0:01:09 1873
   128  1.0365e-02  1.2309e-02  4.7774e-03  2.4534e+00  1.0373e-02  2.2867e-03  1.1461e-03  0:00:55 1872
   129  1.0473e-02  1.1857e-02  4.5260e-03  2.0798e+00  1.0477e-02  2.2681e-03  1.1303e-03  0:00:44 1871
   130  1.0490e-02  1.1377e-02  4.2743e-03  1.7184e+00  1.0489e-02  2.2491e-03  1.1173e-03  0:06:49 1870
   131  1.0416e-02  1.0942e-02  3.9978e-03  1.3909e+00  1.0412e-02  2.2291e-03  1.1006e-03  0:05:27 1869
   132  1.0254e-02  1.0488e-02  3.7475e-03  1.1170e+00  1.0248e-02  2.2072e-03  1.0914e-03  0:04:22 1868

  iter  continuity  x-velocity  y-velocity  z-velocity      energy           k       omega     time/iter
   133  1.0006e-02  9.9953e-03  3.5283e-03  9.3011e-01  9.9979e-03  2.1835e-03  1.0823e-03  0:03:29 1867
   134  9.6768e-03  9.4945e-03  3.3228e-03  8.7374e-01  9.6659e-03  2.1586e-03  1.0696e-03  0:02:47 1866
   135  9.2691e-03  9.0002e-03  3.1291e-03  9.5324e-01  9.2560e-03  2.1292e-03  1.0484e-03  0:02:14 1865
   136  8.7883e-03  8.5401e-03  2.9288e-03  1.1184e+00  8.7733e-03  2.1004e-03  1.0309e-03  0:01:47 1864
   137  8.2406e-03  8.0913e-03  2.7657e-03  1.3186e+00  8.2238e-03  2.0701e-03  1.0203e-03  0:01:25 1863
   138  7.6323e-03  7.6665e-03  2.6303e-03  1.5269e+00  7.6139e-03  2.0368e-03  1.0101e-03  0:01:08 1862
   139  6.9712e-03  7.2783e-03  2.5160e-03  1.7283e+00  6.9518e-03  2.0015e-03  9.9472e-04  0:00:55 1861
   140  6.2659e-03  6.9350e-03  2.4207e-03  1.9162e+00  6.2454e-03  1.9703e-03  9.8350e-04  0:00:44 1860
   141  5.5274e-03  6.6416e-03  2.3455e-03  2.0831e+00  5.5057e-03  1.9287e-03  9.6462e-04  0:06:47 1859
   142  4.7656e-03  6.4001e-03  2.2885e-03  2.2299e+00  4.7426e-03  1.8899e-03  9.4660e-04  0:05:25 1858
   143  3.9947e-03  6.2110e-03  2.2460e-03  2.3542e+00  3.9701e-03  1.8507e-03  9.3055e-04  0:04:20 1857

  iter  continuity  x-velocity  y-velocity  z-velocity      energy           k       omega     time/iter
   144  3.2345e-03  6.0575e-03  2.2246e-03  2.4570e+00  3.2080e-03  1.8106e-03  9.1620e-04  0:03:28 1856
   145  2.5236e-03  5.9672e-03  2.2033e-03  2.5380e+00  2.4946e-03  1.7701e-03  9.0082e-04  0:02:46 1855
   146  1.9305e-03  5.9190e-03  2.1787e-03  2.5999e+00  1.8985e-03  1.7284e-03  8.8221e-04  0:02:13 1854
   147  1.5927e-03  5.8980e-03  2.1540e-03  2.6435e+00  1.5601e-03  1.6870e-03  8.6509e-04  0:01:46 1853
   148  1.6564e-03  5.8972e-03  2.1301e-03  2.6673e+00  1.6298e-03  1.6461e-03  8.5123e-04  0:01:25 1852
   149  2.0585e-03  5.9011e-03  2.1038e-03  2.6742e+00  2.0393e-03  1.6054e-03  8.3110e-04  0:01:08 1851
   150  2.6120e-03  5.9961e-03  2.0592e-03  2.6637e+00  2.5980e-03  1.5670e-03  8.1128e-04  0:00:54 1850
   151  3.2213e-03  6.0025e-03  2.0653e-03  2.6346e+00  3.2090e-03  1.5292e-03  7.9422e-04  0:00:43 1849
   152  3.8265e-03  5.9585e-03  2.0438e-03  2.5904e+00  3.8138e-03  1.4903e-03  7.7487e-04  0:00:35 1848
   153  4.4007e-03  5.9015e-03  2.0002e-03  2.5345e+00  4.3866e-03  1.4525e-03  7.5646e-04  0:06:37 1847
   154  4.9301e-03  5.8322e-03  1.9517e-03  2.4712e+00  4.9139e-03  1.4167e-03  7.3953e-04  0:05:18 1846

  iter  continuity  x-velocity  y-velocity  z-velocity      energy           k       omega     time/iter
   155  5.4053e-03  5.7460e-03  1.9068e-03  2.3964e+00  5.3868e-03  1.3824e-03  7.2294e-04  0:04:14 1845
   156  5.8199e-03  5.6415e-03  1.8678e-03  2.3118e+00  5.7988e-03  1.3513e-03  7.0506e-04  0:03:23 1844
   157  6.1692e-03  5.5195e-03  1.8344e-03  2.2174e+00  6.1455e-03  1.3251e-03  6.9111e-04  0:02:42 1843
   158  6.4507e-03  5.3831e-03  1.8060e-03  2.1138e+00  6.4243e-03  1.3007e-03  6.7970e-04  0:02:10 1842
   159  6.6628e-03  5.2358e-03  1.7821e-03  2.0042e+00  6.6336e-03  1.2787e-03  6.6999e-04  0:01:44 1841
   160  6.8046e-03  5.0817e-03  1.7619e-03  1.8924e+00  6.7728e-03  1.2588e-03  6.6499e-04  0:01:23 1840
   161  6.8761e-03  4.9249e-03  1.7460e-03  1.7775e+00  6.8420e-03  1.2431e-03  6.5858e-04  0:01:06 1839
   162  6.8786e-03  4.7700e-03  1.7343e-03  1.6540e+00  6.8424e-03  1.2282e-03  6.4770e-04  0:00:53 1838
   163  6.8139e-03  4.6230e-03  1.7261e-03  1.5245e+00  6.7759e-03  1.2131e-03  6.4456e-04  0:00:42 1837
   164  6.6846e-03  4.4892e-03  1.7218e-03  1.3939e+00  6.6452e-03  1.1974e-03  6.3963e-04  0:00:34 1836
   165  6.4940e-03  4.3742e-03  1.7206e-03  1.2612e+00  6.4535e-03  1.1842e-03  6.3143e-04  0:06:34 1835

  iter  continuity  x-velocity  y-velocity  z-velocity      energy           k       omega     time/iter
   166  6.2457e-03  4.2810e-03  1.7222e-03  1.1298e+00  6.2046e-03  1.1709e-03  6.2598e-04  0:05:15 1834
   167  5.9447e-03  4.2136e-03  1.7256e-03  1.0021e+00  5.9034e-03  1.1569e-03  6.2191e-04  0:04:12 1833
   168  5.5962e-03  4.1744e-03  1.7300e-03  8.7975e-01  5.5551e-03  1.1439e-03  6.1540e-04  0:03:21 1832
   169  5.2061e-03  4.1636e-03  1.7350e-03  7.6887e-01  5.1657e-03  1.1296e-03  6.1208e-04  0:02:41 1831
   170  4.7807e-03  4.1796e-03  1.7395e-03  6.7395e-01  4.7414e-03  1.1124e-03  6.0673e-04  0:02:09 1830
   171  4.3272e-03  4.2193e-03  1.7430e-03  6.0707e-01  4.2894e-03  1.0944e-03  6.0607e-04  0:01:43 1829
   172  3.8528e-03  4.2787e-03  1.7449e-03  5.7630e-01  3.8168e-03  1.0765e-03  6.0423e-04  0:01:22 1828
   173  3.3650e-03  4.3528e-03  1.7444e-03  5.8456e-01  3.3312e-03  1.0589e-03  6.0404e-04  0:01:06 1827
   174  2.8737e-03  4.4261e-03  1.7397e-03  6.2802e-01  2.8425e-03  1.0411e-03  6.0305e-04  0:00:53 1826
   175  2.3922e-03  4.5056e-03  1.7302e-03  6.9533e-01  2.3639e-03  1.0246e-03  6.0023e-04  0:06:47 1825
   176  1.9394e-03  4.5975e-03  1.7138e-03  7.7718e-01  1.9148e-03  1.0066e-03  5.9528e-04  0:05:25 1824

  iter  continuity  x-velocity  y-velocity  z-velocity      energy           k       omega     time/iter
   177  1.5463e-03  4.6848e-03  1.6974e-03  8.6374e-01  1.5265e-03  9.8778e-04  5.9469e-04  0:04:20 1823
   178  1.2662e-03  4.7628e-03  1.6801e-03  9.4892e-01  1.2529e-03  9.6972e-04  5.9413e-04  0:03:28 1822
   179  1.1681e-03  4.8287e-03  1.6602e-03  1.0314e+00  1.1626e-03  9.5302e-04  5.9461e-04  0:02:46 1821
   180  1.2740e-03  4.8808e-03  1.6369e-03  1.1047e+00  1.2745e-03  9.3771e-04  5.9295e-04  0:02:13 1820
   181  1.5202e-03  4.9172e-03  1.6101e-03  1.1710e+00  1.5234e-03  9.2119e-04  5.8879e-04  0:01:46 1819
   182  1.8296e-03  4.9367e-03  1.5801e-03  1.2273e+00  1.8331e-03  9.0456e-04  5.8717e-04  0:01:25 1818
   183  2.1550e-03  4.9381e-03  1.5478e-03  1.2751e+00  2.1577e-03  8.9660e-04  5.8940e-04  0:01:08 1817
   184  2.4717e-03  4.9214e-03  1.5136e-03  1.3136e+00  2.4731e-03  8.7844e-04  5.7979e-04  0:00:54 1816
   185  2.7662e-03  4.8868e-03  1.4781e-03  1.3425e+00  2.7662e-03  8.6729e-04  5.7358e-04  0:06:46 1815
   186  3.0307e-03  4.8347e-03  1.4421e-03  1.3617e+00  3.0293e-03  8.5918e-04  5.6834e-04  0:05:25 1814
   187  3.2606e-03  4.7657e-03  1.4060e-03  1.3706e+00  3.2579e-03  8.5272e-04  5.6328e-04  0:04:20 1813

  iter  continuity  x-velocity  y-velocity  z-velocity      energy           k       omega     time/iter
   188  3.4528e-03  4.6813e-03  1.3705e-03  1.3696e+00  3.4489e-03  8.4906e-04  5.5779e-04  0:03:28 1812
   189  3.6055e-03  4.5827e-03  1.3361e-03  1.3580e+00  3.6007e-03  8.4644e-04  5.5204e-04  0:02:46 1811
   190  3.7179e-03  4.4715e-03  1.3030e-03  1.3364e+00  3.7123e-03  8.4579e-04  5.4859e-04  0:02:13 1810
   191  3.7900e-03  4.3497e-03  1.2715e-03  1.3065e+00  3.7837e-03  8.4917e-04  5.4728e-04  0:01:46 1809
   192  3.8223e-03  4.2191e-03  1.2419e-03  1.2678e+00  3.8156e-03  8.5445e-04  5.4769e-04  0:01:25 1808
   193  3.8160e-03  4.0817e-03  1.2141e-03  1.2197e+00  3.8090e-03  8.6140e-04  5.4426e-04  0:01:08 1807
   194  3.7725e-03  3.9394e-03  1.1879e-03  1.1632e+00  3.7654e-03  8.6885e-04  5.4310e-04  0:00:54 1806
   195  3.6940e-03  3.7943e-03  1.1631e-03  1.0997e+00  3.6869e-03  8.7654e-04  5.4182e-04  0:00:43 1805
   196  3.5832e-03  3.6484e-03  1.1394e-03  1.0294e+00  3.5762e-03  8.8442e-04  5.4065e-04  0:06:36 1804
   197  3.4426e-03  3.5035e-03  1.1164e-03  9.5106e-01  3.4358e-03  8.9287e-04  5.4007e-04  0:05:16 1803
   198  3.2753e-03  3.3614e-03  1.0937e-03  8.6584e-01  3.2687e-03  9.0093e-04  5.3874e-04  0:04:13 1802

  iter  continuity  x-velocity  y-velocity  z-velocity      energy           k       omega     time/iter
   199  3.0842e-03  3.2239e-03  1.0707e-03  7.7991e-01  3.0779e-03  9.0680e-04  5.3490e-04  0:03:22 1801
   200  2.8729e-03  3.0926e-03  1.0468e-03  6.9446e-01  2.8670e-03  9.1049e-04  5.3369e-04  0:02:42 1800
   201  2.6448e-03  2.9684e-03  1.0217e-03  6.0825e-01  2.6392e-03  9.2048e-04  5.3527e-04  0:02:09 1799
   202  2.4036e-03  2.8522e-03  9.9519e-04  5.2540e-01  2.3985e-03  9.2042e-04  5.3089e-04  0:01:43 1798
   203  2.1533e-03  2.7447e-03  9.6696e-04  4.4990e-01  2.1485e-03  9.2222e-04  5.2751e-04  0:01:23 1797
   204  1.8982e-03  2.6462e-03  9.3712e-04  3.8959e-01  1.8936e-03  9.2328e-04  5.2415e-04  0:01:06 1796
   205  1.6418e-03  2.5908e-03  8.8457e-04  3.5368e-01  1.6376e-03  9.2358e-04  5.2281e-04  0:00:53 1795
   206  1.3922e-03  2.5366e-03  8.5638e-04  3.4800e-01  1.3882e-03  9.2382e-04  5.2076e-04  0:00:42 1794
   207  1.1571e-03  2.4596e-03  8.3233e-04  3.7203e-01  1.1529e-03  9.2339e-04  5.1217e-04  0:06:32 1793
   208  9.4734e-04  2.3836e-03  8.0035e-04  4.2056e-01  9.4250e-04  9.2208e-04  5.0125e-04  0:05:14 1792
   209  7.8097e-04  2.3158e-03  7.6278e-04  4.8515e-01  7.7512e-04  9.1935e-04  5.0100e-04  0:04:11 1791

  iter  continuity  x-velocity  y-velocity  z-velocity      energy           k       omega     time/iter
   210  6.8352e-04  2.2559e-03  7.2369e-04  5.5817e-01  6.7664e-04  9.1465e-04  4.9871e-04  0:03:21 1790
   211  6.7512e-04  2.2023e-03  6.8595e-04  6.3325e-01  6.6767e-04  9.0797e-04  4.9404e-04  0:02:40 1789
   212  7.4744e-04  2.1541e-03  6.5124e-04  7.0550e-01  7.4010e-04  9.0049e-04  4.8825e-04  0:02:08 1788
   213  8.6973e-04  2.1104e-03  6.2045e-04  7.7306e-01  8.6277e-04  8.9132e-04  4.8089e-04  0:01:43 1787
   214  1.0139e-03  2.0706e-03  5.9410e-04  8.3496e-01  1.0073e-03  8.8053e-04  4.7215e-04  0:01:22 1786
   215  1.1627e-03  2.0339e-03  5.7270e-04  8.8868e-01  1.1563e-03  8.6959e-04  4.6235e-04  0:01:06 1785
   216  1.3065e-03  2.0003e-03  5.5663e-04  9.3573e-01  1.3003e-03  8.5819e-04  4.5167e-04  0:00:52 1784
   217  1.4398e-03  1.9693e-03  5.4586e-04  9.7465e-01  1.4337e-03  8.4588e-04  4.4199e-04  0:06:38 1783
   218  1.5593e-03  1.9410e-03  5.4013e-04  1.0058e+00  1.5532e-03  8.3375e-04  4.3349e-04  0:05:19 1782
   219  1.6632e-03  1.9154e-03  5.3882e-04  1.0257e+00  1.6572e-03  8.2084e-04  4.2524e-04  0:04:15 1781
   220  1.7504e-03  1.8923e-03  5.4119e-04  1.0366e+00  1.7445e-03  8.0780e-04  4.1835e-04  0:03:24 1780

  iter  continuity  x-velocity  y-velocity  z-velocity      energy           k       omega     time/iter
   221  1.8204e-03  1.8722e-03  5.4619e-04  1.0398e+00  1.8144e-03  7.9574e-04  4.1271e-04  0:02:43 1779
   222  1.8729e-03  1.8551e-03  5.5298e-04  1.0344e+00  1.8670e-03  7.8522e-04  4.0678e-04  0:02:10 1778
   223  1.9083e-03  1.8412e-03  5.6051e-04  1.0210e+00  1.9025e-03  7.7636e-04  4.0136e-04  0:01:44 1777
   224  1.9269e-03  1.8307e-03  5.6785e-04  9.9923e-01  1.9211e-03  7.6662e-04  3.9612e-04  0:01:23 1776
   225  1.9293e-03  1.8236e-03  5.7425e-04  9.6523e-01  1.9235e-03  7.5612e-04  3.8905e-04  0:07:02 1775
   226  1.9161e-03  1.8203e-03  5.7905e-04  9.2809e-01  1.9103e-03  7.4617e-04  3.8244e-04  0:05:37 1774
   227  1.8882e-03  1.8209e-03  5.8180e-04  8.8512e-01  1.8826e-03  7.3568e-04  3.7555e-04  0:04:29 1773
   228  1.8466e-03  1.8250e-03  5.8215e-04  8.3683e-01  1.8411e-03  7.2459e-04  3.7083e-04  0:03:35 1772
   229  1.7924e-03  1.8328e-03  5.7981e-04  7.8234e-01  1.7870e-03  7.1395e-04  3.6608e-04  0:02:52 1771
   230  1.7267e-03  1.8440e-03  5.7461e-04  7.2346e-01  1.7214e-03  7.0246e-04  3.6201e-04  0:02:18 1770
   231  1.6508e-03  1.8584e-03  5.6645e-04  6.6156e-01  1.6456e-03  6.9020e-04  3.5900e-04  0:01:50 1769

  iter  continuity  x-velocity  y-velocity  z-velocity      energy           k       omega     time/iter
   232  1.5659e-03  1.8755e-03  5.5536e-04  5.9579e-01  1.5608e-03  6.7774e-04  3.5465e-04  0:01:28 1768
   233  1.4732e-03  1.8951e-03  5.4145e-04  5.2667e-01  1.4683e-03  6.6554e-04  3.4986e-04  0:01:10 1767
   234  1.3743e-03  1.9167e-03  5.2491e-04  4.5743e-01  1.3696e-03  6.5462e-04  3.4537e-04  0:00:56 1766
   235  1.2705e-03  1.9397e-03  5.0605e-04  3.8902e-01  1.2659e-03  6.4365e-04  3.3975e-04  0:00:45 1765
   236  1.1634e-03  1.9635e-03  4.8517e-04  3.2424e-01  1.1590e-03  6.3266e-04  3.3458e-04  0:00:36 1764
   237  1.0545e-03  1.9876e-03  4.6272e-04  2.6759e-01  1.0504e-03  6.2145e-04  3.3031e-04  0:00:29 1763
   238  9.4580e-04  2.0114e-03  4.3918e-04  2.2460e-01  9.4184e-04  6.1086e-04  3.2710e-04  0:06:15 1762
   239  8.3928e-04  2.0343e-03  4.1516e-04  2.0269e-01  8.3559e-04  6.0062e-04  3.2366e-04  0:05:00 1761
   240  7.3754e-04  2.0558e-03  3.9133e-04  2.0701e-01  7.3418e-04  5.9180e-04  3.1925e-04  0:04:00 1760
   241  6.4386e-04  2.0756e-03  3.6851e-04  2.3393e-01  6.4092e-04  5.8355e-04  3.1533e-04  0:03:12 1759
   242  5.6245e-04  2.0931e-03  3.4756e-04  2.7405e-01  5.6007e-04  5.7563e-04  3.1301e-04  0:02:33 1758

  iter  continuity  x-velocity  y-velocity  z-velocity      energy           k       omega     time/iter
   243  4.9865e-04  2.1079e-03  3.2939e-04  3.2009e-01  4.9702e-04  5.6783e-04  3.0795e-04  0:02:03 1757
   244  4.5817e-04  2.1196e-03  3.1489e-04  3.6631e-01  4.5746e-04  5.5968e-04  3.0253e-04  0:01:38 1756
   245  4.4474e-04  2.1281e-03  3.0483e-04  4.1017e-01  4.4502e-04  5.5071e-04  2.9515e-04  0:01:18 1755
   246  4.5767e-04  2.1329e-03  2.9967e-04  4.5044e-01  4.5886e-04  5.4211e-04  2.8910e-04  0:01:03 1754
   247  4.9149e-04  2.1340e-03  2.9949e-04  4.8650e-01  4.9338e-04  5.3342e-04  2.8345e-04  0:00:50 1753
   248  5.3882e-04  2.1311e-03  3.0398e-04  5.1789e-01  5.4119e-04  5.2437e-04  2.7787e-04  0:06:30 1752
   249  5.9314e-04  2.1242e-03  3.1248e-04  5.4449e-01  5.9583e-04  5.1549e-04  2.7248e-04  0:05:12 1751
   250  6.4965e-04  2.1130e-03  3.2410e-04  5.6615e-01  6.5253e-04  5.0722e-04  2.6808e-04  0:04:10 1750
   251  7.0508e-04  2.0977e-03  3.3786e-04  5.8304e-01  7.0807e-04  4.9973e-04  2.6374e-04  0:03:20 1749
   252  7.5725e-04  2.0783e-03  3.5282e-04  5.9405e-01  7.6031e-04  4.9251e-04  2.6089e-04  0:02:40 1748
   253  8.0469e-04  2.0550e-03  3.6817e-04  5.9886e-01  8.0777e-04  4.8566e-04  2.5914e-04  0:02:08 1747

  iter  continuity  x-velocity  y-velocity  z-velocity      energy           k       omega     time/iter
   254  8.4640e-04  2.0278e-03  3.8317e-04  5.9761e-01  8.4948e-04  4.7967e-04  2.5662e-04  0:01:42 1746
   255  8.8172e-04  1.9969e-03  3.9723e-04  5.9268e-01  8.8477e-04  4.7324e-04  2.5414e-04  0:01:22 1745
   256  9.1023e-04  1.9627e-03  4.0984e-04  5.8401e-01  9.1322e-04  4.6663e-04  2.5127e-04  0:01:05 1744
   257  9.3168e-04  1.9252e-03  4.2065e-04  5.7083e-01  9.3459e-04  4.6024e-04  2.4848e-04  0:00:52 1743
   258  9.4597e-04  1.8847e-03  4.2937e-04  5.5298e-01  9.4877e-04  4.5374e-04  2.4467e-04  0:00:42 1742
   259  9.5311e-04  1.8416e-03  4.3575e-04  5.3098e-01  9.5577e-04  4.4668e-04  2.4171e-04  0:00:33 1741
   260  9.5320e-04  1.7963e-03  4.3965e-04  5.0530e-01  9.5570e-04  4.3920e-04  2.3929e-04  0:06:15 1740
   261  9.4646e-04  1.7492e-03  4.4098e-04  4.7562e-01  9.4875e-04  4.3199e-04  2.3635e-04  0:05:00 1739
   262  9.3315e-04  1.7007e-03  4.3970e-04  4.4420e-01  9.3521e-04  4.2551e-04  2.3345e-04  0:04:00 1738
   263  9.1364e-04  1.6511e-03  4.3580e-04  4.0942e-01  9.1542e-04  4.1967e-04  2.3036e-04  0:03:11 1737
   264  8.8835e-04  1.6010e-03  4.2933e-04  3.7334e-01  8.8980e-04  4.1357e-04  2.2789e-04  0:02:33 1736

  iter  continuity  x-velocity  y-velocity  z-velocity      energy           k       omega     time/iter
   265  8.5777e-04  1.5509e-03  4.2038e-04  3.3583e-01  8.5885e-04  4.0737e-04  2.2508e-04  0:02:02 1735
   266  8.2248e-04  1.5011e-03  4.0906e-04  2.9750e-01  8.2312e-04  4.0135e-04  2.2129e-04  0:01:38 1734
   267  7.8296e-04  1.4523e-03  3.9552e-04  2.5890e-01  7.8310e-04  3.9575e-04  2.1794e-04  0:01:18 1733
   268  7.4011e-04  1.4049e-03  3.7994e-04  2.2115e-01  7.3966e-04  3.8932e-04  2.1452e-04  0:01:03 1732
   269  6.9475e-04  1.3594e-03  3.6251e-04  1.8569e-01  6.9363e-04  3.8355e-04  2.1115e-04  0:00:50 1731
   270  6.4775e-04  1.3161e-03  3.4346e-04  1.5463e-01  6.4584e-04  3.7798e-04  2.0980e-04  0:06:26 1730
   271  6.0010e-04  1.2754e-03  3.2305e-04  1.3086e-01  5.9730e-04  3.7236e-04  2.0838e-04  0:05:09 1729
   272  5.5300e-04  1.2379e-03  3.0158e-04  1.1804e-01  5.4916e-04  3.6669e-04  2.0578e-04  0:04:07 1728
   273  5.0782e-04  1.2036e-03  2.7937e-04  1.1827e-01  5.0280e-04  3.6077e-04  2.0211e-04  0:03:17 1727
   274  4.6610e-04  1.1728e-03  2.5678e-04  1.2990e-01  4.5978e-04  3.5480e-04  1.9881e-04  0:02:38 1726
   275  4.2963e-04  1.1457e-03  2.3422e-04  1.4849e-01  4.2191e-04  3.4862e-04  1.9440e-04  0:02:06 1725

  iter  continuity  x-velocity  y-velocity  z-velocity      energy           k       omega     time/iter
   276  4.0024e-04  1.1224e-03  2.1217e-04  1.7013e-01  3.9110e-04  3.4238e-04  1.8926e-04  0:01:41 1724
   277  3.7960e-04  1.1028e-03  1.9119e-04  1.9194e-01  3.6917e-04  3.3646e-04  1.8617e-04  0:01:21 1723
   278  3.6878e-04  1.0869e-03  1.7195e-04  2.1253e-01  3.5736e-04  3.3098e-04  1.8466e-04  0:01:04 1722
   279  3.6789e-04  1.0745e-03  1.5528e-04  2.3058e-01  3.5588e-04  3.2547e-04  1.8402e-04  0:00:52 1721
   280  3.7593e-04  1.0655e-03  1.4207e-04  2.4580e-01  3.6377e-04  3.2025e-04  1.8236e-04  0:06:25 1720
   281  3.9112e-04  1.0596e-03  1.3317e-04  2.5793e-01  3.7918e-04  3.1575e-04  1.8034e-04  0:05:08 1719
   282  4.1134e-04  1.0565e-03  1.2910e-04  2.6711e-01  3.9986e-04  3.1118e-04  1.7815e-04  0:04:06 1718
   283  4.3449e-04  1.0559e-03  1.2978e-04  2.7322e-01  4.2363e-04  3.0710e-04  1.7638e-04  0:03:17 1717
   284  4.5877e-04  1.0576e-03  1.3455e-04  2.7612e-01  4.4859e-04  3.0443e-04  1.7475e-04  0:02:37 1716
   285  4.8274e-04  1.0613e-03  1.4236e-04  2.7647e-01  4.7325e-04  3.0211e-04  1.7353e-04  0:02:06 1715
   286  5.0526e-04  1.0666e-03  1.5208e-04  2.7424e-01  4.9647e-04  3.0018e-04  1.7220e-04  0:01:41 1714

  iter  continuity  x-velocity  y-velocity  z-velocity      energy           k       omega     time/iter
   287  5.2549e-04  1.0734e-03  1.6273e-04  2.6993e-01  5.1735e-04  2.9908e-04  1.7120e-04  0:01:20 1713
   288  5.4275e-04  1.0814e-03  1.7355e-04  2.6334e-01  5.3526e-04  2.9890e-04  1.6994e-04  0:01:04 1712
   289  5.5659e-04  1.0903e-03  1.8395e-04  2.5456e-01  5.4970e-04  2.9947e-04  1.6907e-04  0:00:51 1711
   290  5.6665e-04  1.0998e-03  1.9353e-04  2.4405e-01  5.6034e-04  3.0033e-04  1.6872e-04  0:06:23 1710
   291  5.7274e-04  1.1099e-03  2.0198e-04  2.3182e-01  5.6698e-04  3.0139e-04  1.6920e-04  0:05:06 1709
   292  5.7473e-04  1.1204e-03  2.0912e-04  2.1798e-01  5.6952e-04  3.0290e-04  1.6976e-04  0:04:05 1708
   293  5.7262e-04  1.1311e-03  2.1479e-04  2.0269e-01  5.6792e-04  3.0485e-04  1.7024e-04  0:03:16 1707
   294  5.6642e-04  1.1419e-03  2.1890e-04  1.8635e-01  5.6223e-04  3.0705e-04  1.7118e-04  0:02:37 1706
   295  5.5623e-04  1.1526e-03  2.2144e-04  1.6949e-01  5.5255e-04  3.0961e-04  1.7185e-04  0:02:05 1705
   296  5.4226e-04  1.1631e-03  2.2235e-04  1.5208e-01  5.3907e-04  3.1251e-04  1.7238e-04  0:01:40 1704
   297  5.2470e-04  1.1734e-03  2.2166e-04  1.3473e-01  5.2201e-04  3.1561e-04  1.7225e-04  0:01:20 1703

  iter  continuity  x-velocity  y-velocity  z-velocity      energy           k       omega     time/iter
   298  5.0384e-04  1.1834e-03  2.1944e-04  1.1754e-01  5.0164e-04  3.1880e-04  1.7213e-04  0:01:04 1702
   299  4.7996e-04  1.1928e-03  2.1580e-04  1.0131e-01  4.7826e-04  3.2186e-04  1.7131e-04  0:00:51 1701
   300  4.5339e-04  1.2017e-03  2.1084e-04  8.6786e-02  4.5221e-04  3.2474e-04  1.7132e-04  0:06:21 1700
   301  4.2452e-04  1.2101e-03  2.0473e-04  7.5280e-02  4.2387e-04  3.2725e-04  1.7224e-04  0:05:05 1699
   302  3.9376e-04  1.2177e-03  1.9766e-04  6.8350e-02  3.9367e-04  3.2950e-04  1.7285e-04  0:04:03 1698
   303  3.6157e-04  1.2245e-03  1.8987e-04  6.6897e-02  3.6210e-04  3.3151e-04  1.7316e-04  0:03:15 1697
   304  3.2850e-04  1.2305e-03  1.8165e-04  7.1153e-02  3.2968e-04  3.3331e-04  1.7268e-04  0:02:36 1696
   305  2.9513e-04  1.2356e-03  1.7332e-04  7.9848e-02  2.9703e-04  3.3497e-04  1.7225e-04  0:02:04 1695
   306  2.6218e-04  1.2397e-03  1.6529e-04  9.0889e-02  2.6488e-04  3.3608e-04  1.7105e-04  0:01:39 1694
   307  2.3054e-04  1.2427e-03  1.5802e-04  1.0289e-01  2.3415e-04  3.3732e-04  1.6968e-04  0:01:20 1693
   308  2.0136e-04  1.2446e-03  1.5199e-04  1.1517e-01  2.0596e-04  3.3850e-04  1.6838e-04  0:01:04 1692

  iter  continuity  x-velocity  y-velocity  z-velocity      energy           k       omega     time/iter
   309  1.7615e-04  1.2453e-03  1.4769e-04  1.2745e-01  1.8179e-04  3.3938e-04  1.6786e-04  0:00:51 1691
   310  1.5681e-04  1.2449e-03  1.4554e-04  1.3904e-01  1.6340e-04  3.4004e-04  1.6767e-04  0:06:19 1690
   311  1.4530e-04  1.2432e-03  1.4586e-04  1.4982e-01  1.5252e-04  3.4053e-04  1.6741e-04  0:05:03 1689
   312  1.4281e-04  1.2402e-03  1.4877e-04  1.5949e-01  1.5011e-04  3.4084e-04  1.6752e-04  0:04:02 1688
   313  1.4884e-04  1.2360e-03  1.5415e-04  1.6804e-01  1.5567e-04  3.4108e-04  1.6721e-04  0:03:14 1687
   314  1.6136e-04  1.2306e-03  1.6174e-04  1.7527e-01  1.6736e-04  3.4111e-04  1.6556e-04  0:02:35 1686
   315  1.7792e-04  1.2239e-03  1.7115e-04  1.8108e-01  1.8296e-04  3.4080e-04  1.6417e-04  0:02:04 1685
   316  1.9643e-04  1.2161e-03  1.8195e-04  1.8557e-01  2.0051e-04  3.4019e-04  1.6304e-04  0:01:39 1684
   317  2.1538e-04  1.2071e-03  1.9384e-04  1.8866e-01  2.1856e-04  3.3924e-04  1.6177e-04  0:01:19 1683
   318  2.3374e-04  1.1971e-03  2.0629e-04  1.9034e-01  2.3608e-04  3.3788e-04  1.6087e-04  0:01:03 1682
   319  2.5082e-04  1.1862e-03  2.1897e-04  1.9090e-01  2.5238e-04  3.3659e-04  1.6041e-04  0:06:27 1681

  iter  continuity  x-velocity  y-velocity  z-velocity      energy           k       omega     time/iter
   320  2.6617e-04  1.1744e-03  2.3162e-04  1.9011e-01  2.6698e-04  3.3555e-04  1.6014e-04  0:05:09 1680
   321  2.7947e-04  1.1618e-03  2.4401e-04  1.8827e-01  2.7957e-04  3.3456e-04  1.5961e-04  0:04:07 1679
   322  2.9054e-04  1.1486e-03  2.5593e-04  1.8529e-01  2.8994e-04  3.3357e-04  1.5891e-04  0:03:18 1678
   323  2.9926e-04  1.1348e-03  2.6722e-04  1.8120e-01  2.9796e-04  3.3204e-04  1.5777e-04  0:02:38 1677
   324  3.0560e-04  1.1205e-03  2.7775e-04  1.7604e-01  3.0358e-04  3.3042e-04  1.5628e-04  0:02:06 1676
   325  3.0960e-04  1.1056e-03  2.8739e-04  1.7004e-01  3.0687e-04  3.2897e-04  1.5505e-04  0:01:41 1675
   326  3.1144e-04  1.0906e-03  2.9607e-04  1.6307e-01  3.0795e-04  3.2741e-04  1.5368e-04  0:01:21 1674
   327  3.1103e-04  1.0753e-03  3.0372e-04  1.5516e-01  3.0677e-04  3.2561e-04  1.5225e-04  0:01:05 1673
   328  3.0852e-04  1.0601e-03  3.1029e-04  1.4650e-01  3.0344e-04  3.2370e-04  1.5171e-04  0:06:26 1672
   329  3.0423e-04  1.0449e-03  3.1575e-04  1.3718e-01  2.9828e-04  3.2165e-04  1.5154e-04  0:05:09 1671
   330  2.9846e-04  1.0301e-03  3.2010e-04  1.2735e-01  2.9161e-04  3.1943e-04  1.5110e-04  0:04:07 1670

  iter  continuity  x-velocity  y-velocity  z-velocity      energy           k       omega     time/iter
   331  2.9120e-04  1.0157e-03  3.2334e-04  1.1693e-01  2.8338e-04  3.1702e-04  1.5050e-04  0:03:17 1669
   332  2.8273e-04  1.0019e-03  3.2547e-04  1.0618e-01  2.7389e-04  3.1440e-04  1.4988e-04  0:02:38 1668
   333  2.7343e-04  9.8871e-04  3.2653e-04  9.5226e-02  2.6351e-04  3.1157e-04  1.4904e-04  0:02:06 1667
   334  2.6369e-04  9.7620e-04  3.2657e-04  8.4243e-02  2.5264e-04  3.0854e-04  1.4817e-04  0:01:41 1666
   335  2.5391e-04  9.6447e-04  3.2562e-04  7.3684e-02  2.4169e-04  3.0539e-04  1.4711e-04  0:01:21 1665
   336  2.4451e-04  9.5357e-04  3.2375e-04  6.3684e-02  2.3112e-04  3.0207e-04  1.4551e-04  0:01:04 1664
   337  2.3589e-04  9.4352e-04  3.2102e-04  5.4425e-02  2.2137e-04  2.9864e-04  1.4339e-04  0:00:52 1663
   338  2.2844e-04  9.3435e-04  3.1752e-04  4.6321e-02  2.1285e-04  2.9515e-04  1.4041e-04  0:06:14 1662
   339  2.2235e-04  9.2605e-04  3.1330e-04  3.9873e-02  2.0583e-04  2.9154e-04  1.3775e-04  0:04:59 1661
   340  2.1807e-04  9.1862e-04  3.0848e-04  3.5762e-02  2.0082e-04  2.8787e-04  1.3588e-04  0:03:59 1660
   341  2.1577e-04  9.1200e-04  3.0312e-04  3.4497e-02  1.9804e-04  2.8418e-04  1.3470e-04  0:03:11 1659

  iter  continuity  x-velocity  y-velocity  z-velocity      energy           k       omega     time/iter
   342  2.1546e-04  9.0613e-04  2.9733e-04  3.5905e-02  1.9752e-04  2.8040e-04  1.3365e-04  0:02:33 1658
   343  2.1697e-04  9.0095e-04  2.9118e-04  3.9246e-02  1.9910e-04  2.7656e-04  1.3244e-04  0:02:02 1657
   344  2.2009e-04  8.9642e-04  2.8478e-04  4.3689e-02  2.0251e-04  2.7274e-04  1.3105e-04  0:01:38 1656
   345  2.2447e-04  8.9248e-04  2.7822e-04  4.8461e-02  2.0739e-04  2.6898e-04  1.2921e-04  0:01:18 1655
   346  2.2977e-04  8.8904e-04  2.7157e-04  5.2924e-02  2.1331e-04  2.6527e-04  1.2670e-04  0:01:02 1654
   347  2.3563e-04  8.8604e-04  2.6493e-04  5.6821e-02  2.1988e-04  2.6179e-04  1.2449e-04  0:06:20 1653
   348  2.4168e-04  8.8343e-04  2.5835e-04  6.0119e-02  2.2668e-04  2.5829e-04  1.2241e-04  0:05:04 1652
   349  2.4759e-04  8.8112e-04  2.5190e-04  6.3027e-02  2.3334e-04  2.5486e-04  1.2070e-04  0:04:03 1651
   350  2.5307e-04  8.7902e-04  2.4564e-04  6.5770e-02  2.3955e-04  2.5152e-04  1.1911e-04  0:03:14 1650
   351  2.5787e-04  8.7709e-04  2.3961e-04  6.8142e-02  2.4506e-04  2.4826e-04  1.1748e-04  0:02:35 1649
   352  2.6180e-04  8.7532e-04  2.3386e-04  6.9991e-02  2.4965e-04  2.4492e-04  1.1593e-04  0:02:04 1648

  iter  continuity  x-velocity  y-velocity  z-velocity      energy           k       omega     time/iter
   353  2.6469e-04  8.7366e-04  2.2841e-04  7.1194e-02  2.5315e-04  2.4205e-04  1.1445e-04  0:01:39 1647
   354  2.6643e-04  8.7205e-04  2.2327e-04  7.1659e-02  2.5545e-04  2.3938e-04  1.1309e-04  0:01:19 1646
   355  2.6693e-04  8.7043e-04  2.1846e-04  7.1346e-02  2.5646e-04  2.3685e-04  1.1179e-04  0:01:04 1645
   356  2.6614e-04  8.6879e-04  2.1399e-04  7.0361e-02  2.5613e-04  2.3455e-04  1.1051e-04  0:00:51 1644
   357  2.6405e-04  8.6711e-04  2.0986e-04  6.8729e-02  2.5445e-04  2.3262e-04  1.0931e-04  0:06:09 1643
   358  2.6067e-04  8.6538e-04  2.0607e-04  6.6471e-02  2.5141e-04  2.3083e-04  1.0836e-04  0:04:55 1642
   359  2.5603e-04  8.6359e-04  2.0264e-04  6.3645e-02  2.4706e-04  2.2916e-04  1.0719e-04  0:03:56 1641
   360  2.5013e-04  8.6148e-04  1.9956e-04  6.0311e-02  2.4141e-04  2.2752e-04  1.0636e-04  0:03:09 1640
   361  2.4325e-04  8.5937e-04  1.9685e-04  5.6546e-02  2.3471e-04  2.2595e-04  1.0557e-04  0:02:31 1639
   362  2.3537e-04  8.5719e-04  1.9451e-04  5.2479e-02  2.2697e-04  2.2451e-04  1.0481e-04  0:02:01 1638
   363  2.2665e-04  8.5491e-04  1.9257e-04  4.8193e-02  2.1832e-04  2.2324e-04  1.0425e-04  0:01:36 1637

  iter  continuity  x-velocity  y-velocity  z-velocity      energy           k       omega     time/iter
   364  2.1722e-04  8.5251e-04  1.9106e-04  4.3902e-02  2.0892e-04  2.2206e-04  1.0395e-04  0:01:17 1636
   365  2.0728e-04  8.4998e-04  1.9003e-04  3.9760e-02  1.9893e-04  2.2090e-04  1.0403e-04  0:01:02 1635
   366  1.9704e-04  8.4731e-04  1.8952e-04  3.6017e-02  1.8857e-04  2.1975e-04  1.0383e-04  0:00:49 1634
   367  1.8671e-04  8.4453e-04  1.8956e-04  3.2880e-02  1.7806e-04  2.1878e-04  1.0339e-04  0:06:06 1633
   368  1.7656e-04  8.4160e-04  1.9022e-04  3.0758e-02  1.6766e-04  2.1793e-04  1.0297e-04  0:04:53 1632
   369  1.6685e-04  8.3852e-04  1.9151e-04  2.9806e-02  1.5762e-04  2.1709e-04  1.0263e-04  0:03:54 1631
   370  1.5789e-04  8.3530e-04  1.9346e-04  3.0177e-02  1.4829e-04  2.1625e-04  1.0248e-04  0:03:07 1630
   371  1.4998e-04  8.3193e-04  1.9609e-04  3.1838e-02  1.3998e-04  2.1554e-04  1.0236e-04  0:02:30 1629
   372  1.4340e-04  8.2840e-04  1.9940e-04  3.4537e-02  1.3298e-04  2.1488e-04  1.0229e-04  0:02:00 1628
   373  1.3838e-04  8.2471e-04  2.0337e-04  3.7842e-02  1.2758e-04  2.1431e-04  1.0223e-04  0:01:36 1627
   374  1.3507e-04  8.2086e-04  2.0800e-04  4.1424e-02  1.2394e-04  2.1369e-04  1.0235e-04  0:01:16 1626

  iter  continuity  x-velocity  y-velocity  z-velocity      energy           k       omega     time/iter
   375  1.3352e-04  8.1685e-04  2.1323e-04  4.5117e-02  1.2215e-04  2.1305e-04  1.0255e-04  0:01:01 1625
   376  1.3364e-04  8.1269e-04  2.1901e-04  4.8670e-02  1.2212e-04  2.1248e-04  1.0273e-04  0:06:14 1624
   377  1.3527e-04  8.0839e-04  2.2529e-04  5.2020e-02  1.2370e-04  2.1198e-04  1.0283e-04  0:04:59 1623
   378  1.3815e-04  8.0392e-04  2.3199e-04  5.5054e-02  1.2661e-04  2.1157e-04  1.0283e-04  0:03:59 1622
   379  1.4199e-04  7.9931e-04  2.3903e-04  5.7709e-02  1.3050e-04  2.1125e-04  1.0269e-04  0:03:11 1621
   380  1.4648e-04  7.9455e-04  2.4633e-04  5.9983e-02  1.3506e-04  2.1106e-04  1.0244e-04  0:02:33 1620
   381  1.5132e-04  7.8960e-04  2.5381e-04  6.1860e-02  1.3996e-04  2.1088e-04  1.0214e-04  0:02:02 1619
   382  1.5627e-04  7.8453e-04  2.6139e-04  6.3382e-02  1.4494e-04  2.1072e-04  1.0178e-04  0:01:38 1618
   383  1.6111e-04  7.7936e-04  2.6898e-04  6.4508e-02  1.4977e-04  2.1056e-04  1.0133e-04  0:01:18 1617
   384  1.6567e-04  7.7408e-04  2.7652e-04  6.5115e-02  1.5429e-04  2.1033e-04  1.0054e-04  0:01:02 1616
   385  1.6984e-04  7.6871e-04  2.8392e-04  6.5246e-02  1.5836e-04  2.1004e-04  9.9734e-05  0:00:50 1615

  iter  continuity  x-velocity  y-velocity  z-velocity      energy           k       omega     time/iter
   386  1.7352e-04  7.6327e-04  2.9111e-04  6.4890e-02  1.6190e-04  2.0980e-04  9.9020e-05  0:06:03 1614
   387  1.7668e-04  7.5776e-04  2.9805e-04  6.4089e-02  1.6487e-04  2.0955e-04  9.8428e-05  0:04:50 1613
   388  1.7924e-04  7.5220e-04  3.0468e-04  6.2859e-02  1.6720e-04  2.0923e-04  9.7933e-05  0:03:52 1612
   389  1.8121e-04  7.4661e-04  3.1094e-04  6.1182e-02  1.6890e-04  2.0880e-04  9.7527e-05  0:03:05 1611
   390  1.8263e-04  7.4102e-04  3.1677e-04  5.9065e-02  1.7001e-04  2.0769e-04  9.7012e-05  0:02:28 1610
   391  1.8355e-04  7.3544e-04  3.2216e-04  5.6535e-02  1.7058e-04  2.0660e-04  9.6416e-05  0:01:58 1609
   392  1.8401e-04  7.2990e-04  3.2705e-04  5.3729e-02  1.7067e-04  2.0550e-04  9.5819e-05  0:01:35 1608
   393  1.8408e-04  7.2443e-04  3.3143e-04  5.0614e-02  1.7034e-04  2.0407e-04  9.5222e-05  0:01:16 1607
   394  1.8385e-04  7.1903e-04  3.3529e-04  4.7137e-02  1.6970e-04  2.0263e-04  9.4554e-05  0:01:01 1606
   395  1.8341e-04  7.1372e-04  3.3860e-04  4.3416e-02  1.6883e-04  2.0118e-04  9.4248e-05  0:06:09 1605
   396  1.8284e-04  7.0851e-04  3.4136e-04  3.9436e-02  1.6785e-04  1.9968e-04  9.3913e-05  0:04:55 1604

  iter  continuity  x-velocity  y-velocity  z-velocity      energy           k       omega     time/iter
   397  1.8225e-04  7.0338e-04  3.4359e-04  3.5366e-02  1.6686e-04  1.9822e-04  9.3671e-05  0:03:56 1603
   398  1.8173e-04  6.9837e-04  3.4527e-04  3.1301e-02  1.6596e-04  1.9683e-04  9.3649e-05  0:03:09 1602
   399  1.8135e-04  6.9346e-04  3.4641e-04  2.7229e-02  1.6524e-04  1.9524e-04  9.3628e-05  0:02:31 1601
   400  1.8119e-04  6.8866e-04  3.4705e-04  2.3259e-02  1.6479e-04  1.9353e-04  9.3392e-05  0:02:01 1600
   401  1.8130e-04  6.8398e-04  3.4718e-04  1.9507e-02  1.6467e-04  1.9177e-04  9.3015e-05  0:01:36 1599
   402  1.8171e-04  6.7939e-04  3.4684e-04  1.6172e-02  1.6491e-04  1.8991e-04  9.2665e-05  0:01:17 1598
   403  1.8244e-04  6.7489e-04  3.4604e-04  1.3600e-02  1.6554e-04  1.8804e-04  9.2245e-05  0:01:02 1597
   404  1.8347e-04  6.7047e-04  3.4482e-04  1.2264e-02  1.6654e-04  1.8626e-04  9.1802e-05  0:00:49 1596
   405  1.8478e-04  6.6613e-04  3.4321e-04  1.2456e-02  1.6789e-04  1.8453e-04  9.1300e-05  0:05:58 1595
   406  1.8633e-04  6.6184e-04  3.4123e-04  1.4016e-02  1.6953e-04  1.8282e-04  9.0705e-05  0:04:47 1594
   407  1.8805e-04  6.5761e-04  3.3892e-04  1.6435e-02  1.7140e-04  1.8108e-04  9.0004e-05  0:03:49 1593

  iter  continuity  x-velocity  y-velocity  z-velocity      energy           k       omega     time/iter
   408  1.8987e-04  6.5341e-04  3.3631e-04  1.9227e-02  1.7342e-04  1.7932e-04  8.9194e-05  0:03:03 1592
   409  1.9173e-04  6.4922e-04  3.3343e-04  2.2159e-02  1.7551e-04  1.7750e-04  8.8344e-05  0:02:26 1591
   410  1.9354e-04  6.4503e-04  3.3032e-04  2.5084e-02  1.7757e-04  1.7575e-04  8.7437e-05  0:01:57 1590
   411  1.9518e-04  6.4093e-04  3.2678e-04  2.7893e-02  1.7947e-04  1.7399e-04  8.6467e-05  0:01:34 1589
   412  1.9660e-04  6.3691e-04  3.2307e-04  3.0539e-02  1.8117e-04  1.7233e-04  8.5450e-05  0:01:15 1588
   413  1.9776e-04  6.3267e-04  3.1941e-04  3.2991e-02  1.8262e-04  1.7072e-04  8.4482e-05  0:01:00 1587
   414  1.9858e-04  6.2831e-04  3.1573e-04  3.5239e-02  1.8372e-04  1.6909e-04  8.3410e-05  0:00:48 1586
   415  1.9902e-04  6.2387e-04  3.1202e-04  3.7265e-02  1.8442e-04  1.6746e-04  8.2274e-05  0:00:38 1585
   416  1.9903e-04  6.1937e-04  3.0826e-04  3.9043e-02  1.8468e-04  1.6571e-04  8.1099e-05  0:05:47 1584
   417  1.9856e-04  6.1484e-04  3.0448e-04  4.0553e-02  1.8444e-04  1.6385e-04  7.9701e-05  0:04:38 1583
   418  1.9760e-04  6.1027e-04  3.0068e-04  4.1795e-02  1.8368e-04  1.6197e-04  7.8345e-05  0:03:42 1582

  iter  continuity  x-velocity  y-velocity  z-velocity      energy           k       omega     time/iter
   419  1.9612e-04  6.0564e-04  2.9690e-04  4.2791e-02  1.8240e-04  1.6006e-04  7.7028e-05  0:02:58 1581
   420  1.9414e-04  6.0097e-04  2.9316e-04  4.3531e-02  1.8057e-04  1.5809e-04  7.5734e-05  0:02:22 1580
   421  1.9165e-04  5.9624e-04  2.8947e-04  4.4025e-02  1.7822e-04  1.5606e-04  7.4418e-05  0:01:53 1579
   422  1.8867e-04  5.9148e-04  2.8586e-04  4.4271e-02  1.7536e-04  1.5399e-04  7.3232e-05  0:01:31 1578
   423  1.8525e-04  5.8666e-04  2.8235e-04  4.4271e-02  1.7202e-04  1.5196e-04  7.2126e-05  0:01:13 1577
   424  1.8142e-04  5.8179e-04  2.7894e-04  4.4035e-02  1.6825e-04  1.4998e-04  7.1075e-05  0:06:13 1576
   425  1.7722e-04  5.7690e-04  2.7566e-04  4.3598e-02  1.6408e-04  1.4806e-04  7.0104e-05  0:04:58 1575
   426  1.7272e-04  5.7199e-04  2.7252e-04  4.3025e-02  1.5959e-04  1.4623e-04  6.9115e-05  0:03:59 1574
   427  1.6799e-04  5.6705e-04  2.6952e-04  4.2304e-02  1.5484e-04  1.4442e-04  6.8126e-05  0:03:11 1573
   428  1.6309e-04  5.6210e-04  2.6670e-04  4.1435e-02  1.4990e-04  1.4263e-04  6.7192e-05  0:02:32 1572
   429  1.5812e-04  5.5709e-04  2.6407e-04  4.0456e-02  1.4486e-04  1.4086e-04  6.6533e-05  0:02:02 1571

  iter  continuity  x-velocity  y-velocity  z-velocity      energy           k       omega     time/iter
   430  1.5314e-04  5.5209e-04  2.6162e-04  3.9369e-02  1.3981e-04  1.3912e-04  6.5922e-05  0:01:37 1570
   431  1.4826e-04  5.4708e-04  2.5939e-04  3.8191e-02  1.3484e-04  1.3737e-04  6.5392e-05  0:01:18 1569
   432  1.4356e-04  5.4208e-04  2.5737e-04  3.6949e-02  1.3003e-04  1.3562e-04  6.4840e-05  0:06:16 1568
   433  1.3912e-04  5.3707e-04  2.5556e-04  3.5665e-02  1.2550e-04  1.3391e-04  6.4276e-05  0:05:01 1567
   434  1.3499e-04  5.3203e-04  2.5400e-04  3.4323e-02  1.2129e-04  1.3220e-04  6.3723e-05  0:04:00 1566
   435  1.3126e-04  5.2700e-04  2.5268e-04  3.2997e-02  1.1749e-04  1.3057e-04  6.3157e-05  0:03:12 1565
   436  1.2802e-04  5.2201e-04  2.5160e-04  3.1684e-02  1.1421e-04  1.2897e-04  6.2570e-05  0:02:34 1564
   437  1.2530e-04  5.1702e-04  2.5075e-04  3.0368e-02  1.1148e-04  1.2739e-04  6.1978e-05  0:02:03 1563
   438  1.2313e-04  5.1204e-04  2.5013e-04  2.9124e-02  1.0935e-04  1.2589e-04  6.1411e-05  0:01:38 1562
   439  1.2151e-04  5.0707e-04  2.4973e-04  2.7957e-02  1.0780e-04  1.2435e-04  6.0841e-05  0:01:18 1561
   440  1.2041e-04  5.0213e-04  2.4954e-04  2.6867e-02  1.0681e-04  1.2281e-04  6.0266e-05  0:01:03 1560

  iter  continuity  x-velocity  y-velocity  z-velocity      energy           k       omega     time/iter
   441  1.1979e-04  4.9720e-04  2.4955e-04  2.5891e-02  1.0634e-04  1.2130e-04  5.9707e-05  0:06:02 1559
   442  1.1960e-04  4.9229e-04  2.4974e-04  2.5035e-02  1.0633e-04  1.1979e-04  5.9146e-05  0:04:49 1558
   443  1.1981e-04  4.8739e-04  2.5011e-04  2.4263e-02  1.0672e-04  1.1829e-04  5.8550e-05  0:03:51 1557
   444  1.2028e-04  4.8252e-04  2.5063e-04  2.3611e-02  1.0738e-04  1.1665e-04  5.7911e-05  0:03:05 1556
   445  1.2094e-04  4.7767e-04  2.5129e-04  2.3092e-02  1.0822e-04  1.1503e-04  5.7260e-05  0:02:28 1555
   446  1.2172e-04  4.7286e-04  2.5206e-04  2.2692e-02  1.0916e-04  1.1358e-04  5.6607e-05  0:01:58 1554
   447  1.2256e-04  4.6809e-04  2.5292e-04  2.2438e-02  1.1013e-04  1.1217e-04  5.5958e-05  0:01:35 1553
   448  1.2342e-04  4.6336e-04  2.5386e-04  2.2280e-02  1.1109e-04  1.1076e-04  5.5316e-05  0:01:16 1552
   449  1.2424e-04  4.5869e-04  2.5485e-04  2.2245e-02  1.1199e-04  1.0937e-04  5.4629e-05  0:01:00 1551
   450  1.2501e-04  4.5402e-04  2.5588e-04  2.2266e-02  1.1280e-04  1.0800e-04  5.4021e-05  0:00:48 1550
   451  1.2570e-04  4.4945e-04  2.5691e-04  2.2337e-02  1.1350e-04  1.0671e-04  5.3442e-05  0:05:48 1549

  iter  continuity  x-velocity  y-velocity  z-velocity      energy           k       omega     time/iter
   452  1.2628e-04  4.4497e-04  2.5793e-04  2.2452e-02  1.1406e-04  1.0542e-04  5.2878e-05  0:04:39 1548
   453  1.2677e-04  4.4057e-04  2.5892e-04  2.2600e-02  1.1449e-04  1.0412e-04  5.2305e-05  0:03:43 1547
   454  1.2715e-04  4.3627e-04  2.5987e-04  2.2770e-02  1.1479e-04  1.0283e-04  5.1716e-05  0:02:58 1546
   455  1.2742e-04  4.3207e-04  2.6076e-04  2.2958e-02  1.1495e-04  1.0153e-04  5.1123e-05  0:02:22 1545
   456  1.2756e-04  4.2797e-04  2.6159e-04  2.3158e-02  1.1494e-04  1.0024e-04  5.0554e-05  0:01:54 1544
   457  1.2771e-04  4.2399e-04  2.6233e-04  2.3374e-02  1.1495e-04  9.8945e-05  4.9978e-05  0:01:31 1543
   458  1.2788e-04  4.2013e-04  2.6298e-04  2.3604e-02  1.1497e-04  9.7645e-05  4.9427e-05  0:01:13 1542
   459  1.2810e-04  4.1641e-04  2.6350e-04  2.3884e-02  1.1503e-04  9.6350e-05  4.8967e-05  0:00:58 1541
   460  1.2838e-04  4.1282e-04  2.6391e-04  2.4205e-02  1.1516e-04  9.5057e-05  4.8605e-05  0:05:54 1540
   461  1.2874e-04  4.0936e-04  2.6420e-04  2.4572e-02  1.1537e-04  9.3740e-05  4.8220e-05  0:04:43 1539
   462  1.2917e-04  4.0605e-04  2.6435e-04  2.4988e-02  1.1568e-04  9.2425e-05  4.7834e-05  0:03:47 1538

  iter  continuity  x-velocity  y-velocity  z-velocity      energy           k       omega     time/iter
   463  1.2970e-04  4.0288e-04  2.6437e-04  2.5439e-02  1.1610e-04  9.1132e-05  4.7461e-05  0:03:01 1537
   464  1.3034e-04  3.9986e-04  2.6426e-04  2.5871e-02  1.1664e-04  8.9873e-05  4.7101e-05  0:02:25 1536
   465  1.3108e-04  3.9698e-04  2.6401e-04  2.6263e-02  1.1732e-04  8.8610e-05  4.6729e-05  0:01:56 1535
   466  1.3192e-04  3.9423e-04  2.6362e-04  2.6629e-02  1.1813e-04  8.7342e-05  4.6335e-05  0:01:33 1534
   467  1.3286e-04  3.9162e-04  2.6310e-04  2.6984e-02  1.1906e-04  8.6080e-05  4.5930e-05  0:01:14 1533
   468  1.3386e-04  3.8914e-04  2.6244e-04  2.7350e-02  1.2008e-04  8.4813e-05  4.5512e-05  0:00:59 1532
   469  1.3491e-04  3.8679e-04  2.6164e-04  2.7717e-02  1.2117e-04  8.3554e-05  4.5052e-05  0:00:47 1531
   470  1.3597e-04  3.8454e-04  2.6072e-04  2.8075e-02  1.2230e-04  8.2322e-05  4.4568e-05  0:05:44 1530
   471  1.3700e-04  3.8242e-04  2.5966e-04  2.8410e-02  1.2341e-04  8.1106e-05  4.4065e-05  0:04:35 1529
   472  1.3796e-04  3.8039e-04  2.5848e-04  2.8720e-02  1.2448e-04  7.9921e-05  4.3549e-05  0:03:40 1528
   473  1.3882e-04  3.7844e-04  2.5718e-04  2.8994e-02  1.2546e-04  7.8742e-05  4.3015e-05  0:02:56 1527

  iter  continuity  x-velocity  y-velocity  z-velocity      energy           k       omega     time/iter
   474  1.3954e-04  3.7657e-04  2.5576e-04  2.9216e-02  1.2631e-04  7.7563e-05  4.2480e-05  0:02:20 1526
   475  1.4008e-04  3.7476e-04  2.5423e-04  2.9393e-02  1.2699e-04  7.6398e-05  4.1954e-05  0:01:52 1525
   476  1.4041e-04  3.7301e-04  2.5259e-04  2.9516e-02  1.2746e-04  7.5240e-05  4.1418e-05  0:01:30 1524
   477  1.4050e-04  3.7131e-04  2.5085e-04  2.9578e-02  1.2770e-04  7.4094e-05  4.0885e-05  0:01:12 1523
   478  1.4033e-04  3.6965e-04  2.4901e-04  2.9580e-02  1.2768e-04  7.2954e-05  4.0359e-05  0:00:57 1522
   479  1.3989e-04  3.6801e-04  2.4708e-04  2.9513e-02  1.2738e-04  7.1835e-05  3.9816e-05  0:05:50 1521
   480  1.3916e-04  3.6639e-04  2.4506e-04  2.9378e-02  1.2679e-04  7.0750e-05  3.9283e-05  0:04:40 1520
   481  1.3813e-04  3.6477e-04  2.4296e-04  2.9179e-02  1.2589e-04  6.9678e-05  3.8745e-05  0:03:44 1519
   482  1.3679e-04  3.6314e-04  2.4079e-04  2.8915e-02  1.2469e-04  6.8620e-05  3.8211e-05  0:02:59 1518
   483  1.3516e-04  3.6151e-04  2.3855e-04  2.8588e-02  1.2318e-04  6.7565e-05  3.7667e-05  0:02:23 1517
   484  1.3323e-04  3.5985e-04  2.3624e-04  2.8196e-02  1.2136e-04  6.6513e-05  3.7082e-05  0:01:54 1516

  iter  continuity  x-velocity  y-velocity  z-velocity      energy           k       omega     time/iter
   485  1.3103e-04  3.5816e-04  2.3387e-04  2.7744e-02  1.1927e-04  6.5474e-05  3.6523e-05  0:01:31 1515
   486  1.2856e-04  3.5642e-04  2.3146e-04  2.7233e-02  1.1690e-04  6.4413e-05  3.5990e-05  0:01:13 1514
   487  1.2586e-04  3.5463e-04  2.2900e-04  2.6664e-02  1.1430e-04  6.3364e-05  3.5453e-05  0:00:58 1513
   488  1.2296e-04  3.5278e-04  2.2650e-04  2.6045e-02  1.1148e-04  6.2324e-05  3.4910e-05  0:05:49 1512
   489  1.1989e-04  3.5086e-04  2.2398e-04  2.5378e-02  1.0848e-04  6.1300e-05  3.4338e-05  0:04:39 1511
   490  1.1668e-04  3.4886e-04  2.2143e-04  2.4660e-02  1.0533e-04  6.0281e-05  3.3747e-05  0:03:43 1510
   491  1.1338e-04  3.4678e-04  2.1887e-04  2.3900e-02  1.0209e-04  5.9272e-05  3.3194e-05  0:02:58 1509
   492  1.1002e-04  3.4462e-04  2.1630e-04  2.3097e-02  9.8789e-05  5.8276e-05  3.2655e-05  0:02:23 1508
   493  1.0649e-04  3.4234e-04  2.1372e-04  2.2242e-02  9.5292e-05  5.7288e-05  3.2138e-05  0:01:54 1507
   494  1.0306e-04  3.3999e-04  2.1116e-04  2.1351e-02  9.1896e-05  5.6310e-05  3.1650e-05  0:01:31 1506
   495  9.9780e-05  3.3755e-04  2.0862e-04  2.0443e-02  8.8658e-05  5.5345e-05  3.1185e-05  0:01:13 1505

  iter  continuity  x-velocity  y-velocity  z-velocity      energy           k       omega     time/iter
   496  9.6652e-05  3.3501e-04  2.0610e-04  1.9532e-02  8.5582e-05  5.4414e-05  3.0746e-05  0:00:58 1504
   497  9.3714e-05  3.3237e-04  2.0361e-04  1.8632e-02  8.2709e-05  5.3519e-05  3.0311e-05  0:05:47 1503
   498  9.0988e-05  3.2963e-04  2.0116e-04  1.7757e-02  8.0061e-05  5.2641e-05  2.9876e-05  0:04:38 1502
   499  8.8490e-05  3.2678e-04  1.9876e-04  1.6923e-02  7.7653e-05  5.1779e-05  2.9446e-05  0:03:42 1501
   500  8.6231e-05  3.2383e-04  1.9641e-04  1.6135e-02  7.5501e-05  5.0863e-05  2.9030e-05  0:02:57 1500
   501  8.4222e-05  3.2079e-04  1.9412e-04  1.5397e-02  7.3614e-05  4.9985e-05  2.8618e-05  0:02:22 1499
   502  8.2470e-05  3.1765e-04  1.9190e-04  1.4718e-02  7.1999e-05  4.9130e-05  2.8209e-05  0:01:53 1498
   503  8.0972e-05  3.1443e-04  1.8974e-04  1.4101e-02  7.0653e-05  4.8291e-05  2.7806e-05  0:01:31 1497
   504  7.9719e-05  3.1114e-04  1.8767e-04  1.3550e-02  6.9564e-05  4.7466e-05  2.7402e-05  0:01:12 1496
   505  7.8694e-05  3.0778e-04  1.8568e-04  1.3070e-02  6.8711e-05  4.6657e-05  2.6989e-05  0:00:58 1495
   506  7.7875e-05  3.0436e-04  1.8378e-04  1.2663e-02  6.8068e-05  4.5866e-05  2.6571e-05  0:05:45 1494

  iter  continuity  x-velocity  y-velocity  z-velocity      energy           k       omega     time/iter
   507  7.7235e-05  3.0089e-04  1.8196e-04  1.2331e-02  6.7604e-05  4.5092e-05  2.6159e-05  0:04:36 1493
   508  7.6747e-05  2.9738e-04  1.8024e-04  1.2069e-02  6.7284e-05  4.4336e-05  2.5780e-05  0:03:41 1492
   509  7.6380e-05  2.9385e-04  1.7861e-04  1.1873e-02  6.7076e-05  4.3598e-05  2.5406e-05  0:02:56 1491
   510  7.6106e-05  2.9030e-04  1.7707e-04  1.1736e-02  6.6948e-05  4.2876e-05  2.5046e-05  0:02:21 1490
   511  7.5902e-05  2.8674e-04  1.7561e-04  1.1652e-02  6.6870e-05  4.2177e-05  2.4663e-05  0:01:53 1489
   512  7.5745e-05  2.8319e-04  1.7424e-04  1.1611e-02  6.6822e-05  4.1496e-05  2.4280e-05  0:01:30 1488
   513  7.5617e-05  2.7966e-04  1.7295e-04  1.1606e-02  6.6782e-05  4.0838e-05  2.3920e-05  0:01:12 1487
   514  7.5508e-05  2.7616e-04  1.7173e-04  1.1628e-02  6.6740e-05  4.0192e-05  2.3569e-05  0:00:58 1486
   515  7.5408e-05  2.7270e-04  1.7059e-04  1.1671e-02  6.6688e-05  3.9559e-05  2.3224e-05  0:05:43 1485
   516  7.5314e-05  2.6930e-04  1.6951e-04  1.1731e-02  6.6623e-05  3.8938e-05  2.2898e-05  0:04:34 1484
   517  7.5227e-05  2.6596e-04  1.6850e-04  1.1802e-02  6.6547e-05  3.8329e-05  2.2580e-05  0:03:39 1483

  iter  continuity  x-velocity  y-velocity  z-velocity      energy           k       omega     time/iter
   518  7.5149e-05  2.6269e-04  1.6755e-04  1.1884e-02  6.6466e-05  3.7731e-05  2.2260e-05  0:02:55 1482
   519  7.5087e-05  2.5951e-04  1.6664e-04  1.1977e-02  6.6389e-05  3.7147e-05  2.1950e-05  0:02:20 1481
   520  7.5049e-05  2.5643e-04  1.6579e-04  1.2081e-02  6.6327e-05  3.6572e-05  2.1642e-05  0:01:52 1480
   521  7.5042e-05  2.5344e-04  1.6497e-04  1.2196e-02  6.6292e-05  3.6003e-05  2.1333e-05  0:01:30 1479
   522  7.5077e-05  2.5057e-04  1.6419e-04  1.2321e-02  6.6294e-05  3.5442e-05  2.1019e-05  0:01:12 1478
   523  7.5160e-05  2.4781e-04  1.6344e-04  1.2454e-02  6.6346e-05  3.4888e-05  2.0716e-05  0:00:57 1477
   524  7.5296e-05  2.4517e-04  1.6270e-04  1.2593e-02  6.6455e-05  3.4339e-05  2.0419e-05  0:05:41 1476
   525  7.5488e-05  2.4266e-04  1.6199e-04  1.2738e-02  6.6627e-05  3.3795e-05  2.0124e-05  0:04:33 1475
   526  7.5738e-05  2.4027e-04  1.6128e-04  1.2886e-02  6.6864e-05  3.3259e-05  1.9840e-05  0:03:38 1474
   527  7.6041e-05  2.3801e-04  1.6057e-04  1.3035e-02  6.7166e-05  3.2730e-05  1.9570e-05  0:02:54 1473
   528  7.6393e-05  2.3588e-04  1.5987e-04  1.3184e-02  6.7527e-05  3.2209e-05  1.9320e-05  0:02:19 1472

  iter  continuity  x-velocity  y-velocity  z-velocity      energy           k       omega     time/iter
   529  7.6784e-05  2.3388e-04  1.5915e-04  1.3330e-02  6.7938e-05  3.1699e-05  1.9068e-05  0:01:51 1471
   530  7.7200e-05  2.3207e-04  1.5842e-04  1.3469e-02  6.8388e-05  3.1194e-05  1.8816e-05  0:01:29 1470
   531  7.7631e-05  2.3034e-04  1.5768e-04  1.3598e-02  6.8862e-05  3.0689e-05  1.8563e-05  0:01:11 1469
   532  7.8061e-05  2.2869e-04  1.5692e-04  1.3713e-02  6.9345e-05  3.0191e-05  1.8312e-05  0:00:57 1468
   533  7.8471e-05  2.2715e-04  1.5613e-04  1.3810e-02  6.9818e-05  2.9698e-05  1.8053e-05  0:05:39 1467
   534  7.8843e-05  2.2573e-04  1.5530e-04  1.3886e-02  7.0260e-05  2.9209e-05  1.7796e-05  0:04:31 1466
   535  7.9159e-05  2.2443e-04  1.5444e-04  1.3937e-02  7.0652e-05  2.8724e-05  1.7545e-05  0:03:37 1465
   536  7.9401e-05  2.2323e-04  1.5354e-04  1.3958e-02  7.0977e-05  2.8244e-05  1.7291e-05  0:02:53 1464
   537  7.9554e-05  2.2211e-04  1.5261e-04  1.3947e-02  7.1217e-05  2.7770e-05  1.7038e-05  0:02:18 1463
   538  7.9595e-05  2.2107e-04  1.5162e-04  1.3905e-02  7.1347e-05  2.7302e-05  1.6789e-05  0:01:51 1462
   539  7.9515e-05  2.2011e-04  1.5060e-04  1.3834e-02  7.1358e-05  2.6849e-05  1.6540e-05  0:01:28 1461

  iter  continuity  x-velocity  y-velocity  z-velocity      energy           k       omega     time/iter
   540  7.9306e-05  2.1920e-04  1.4952e-04  1.3731e-02  7.1241e-05  2.6403e-05  1.6292e-05  0:01:11 1460
   541  7.8965e-05  2.1835e-04  1.4840e-04  1.3593e-02  7.0992e-05  2.5965e-05  1.6044e-05  0:00:57 1459
   542  7.8484e-05  2.1754e-04  1.4723e-04  1.3421e-02  7.0603e-05  2.5537e-05  1.5806e-05  0:05:37 1458
   543  7.7859e-05  2.1676e-04  1.4600e-04  1.3213e-02  7.0069e-05  2.5116e-05  1.5571e-05  0:04:29 1457
   544  7.7088e-05  2.1600e-04  1.4473e-04  1.2973e-02  6.9388e-05  2.4703e-05  1.5345e-05  0:03:35 1456
   545  7.6171e-05  2.1525e-04  1.4341e-04  1.2700e-02  6.8558e-05  2.4300e-05  1.5117e-05  0:02:52 1455
   546  7.5112e-05  2.1451e-04  1.4204e-04  1.2394e-02  6.7584e-05  2.3904e-05  1.4886e-05  0:02:18 1454
   547  7.3917e-05  2.1376e-04  1.4062e-04  1.2057e-02  6.6470e-05  2.3514e-05  1.4647e-05  0:01:50 1453
   548  7.2592e-05  2.1301e-04  1.3916e-04  1.1690e-02  6.5224e-05  2.3131e-05  1.4407e-05  0:01:28 1452
   549  7.1149e-05  2.1223e-04  1.3765e-04  1.1296e-02  6.3857e-05  2.2756e-05  1.4169e-05  0:01:10 1451
   550  6.9603e-05  2.1142e-04  1.3610e-04  1.0880e-02  6.2384e-05  2.2386e-05  1.3944e-05  0:00:56 1450

  iter  continuity  x-velocity  y-velocity  z-velocity      energy           k       omega     time/iter
   551  6.7968e-05  2.1058e-04  1.3451e-04  1.0443e-02  6.0818e-05  2.2021e-05  1.3725e-05  0:00:45 1449
   552  6.6258e-05  2.0969e-04  1.3288e-04  9.9894e-03  5.9174e-05  2.1659e-05  1.3508e-05  0:05:26 1448
   553  6.4488e-05  2.0876e-04  1.3123e-04  9.5216e-03  5.7469e-05  2.1301e-05  1.3289e-05  0:04:20 1447
   554  6.2678e-05  2.0777e-04  1.2954e-04  9.0436e-03  5.5721e-05  2.0955e-05  1.3071e-05  0:03:28 1446
   555  6.0845e-05  2.0673e-04  1.2783e-04  8.5591e-03  5.3949e-05  2.0613e-05  1.2853e-05  0:02:46 1445
   556  5.9009e-05  2.0563e-04  1.2610e-04  8.0732e-03  5.2172e-05  2.0275e-05  1.2632e-05  0:02:13 1444
   557  5.7188e-05  2.0447e-04  1.2435e-04  7.5915e-03  5.0411e-05  1.9940e-05  1.2414e-05  0:01:46 1443
   558  5.5401e-05  2.0324e-04  1.2259e-04  7.1172e-03  4.8683e-05  1.9612e-05  1.2199e-05  0:01:25 1442
   559  5.3665e-05  2.0195e-04  1.2083e-04  6.6550e-03  4.7009e-05  1.9290e-05  1.1989e-05  0:01:08 1441
   560  5.1995e-05  2.0059e-04  1.1907e-04  6.2087e-03  4.5404e-05  1.8977e-05  1.1780e-05  0:00:54 1440
   561  5.0408e-05  1.9917e-04  1.1730e-04  5.7831e-03  4.3886e-05  1.8667e-05  1.1573e-05  0:05:31 1439

  iter  continuity  x-velocity  y-velocity  z-velocity      energy           k       omega     time/iter
   562  4.8915e-05  1.9769e-04  1.1555e-04  5.3826e-03  4.2467e-05  1.8366e-05  1.1374e-05  0:04:25 1438
   563  4.7526e-05  1.9614e-04  1.1381e-04  5.0108e-03  4.1159e-05  1.8072e-05  1.1175e-05  0:03:32 1437
   564  4.6250e-05  1.9453e-04  1.1209e-04  4.6731e-03  3.9968e-05  1.7772e-05  1.0981e-05  0:02:49 1436
   565  4.5088e-05  1.9286e-04  1.1039e-04  4.3739e-03  3.8899e-05  1.7493e-05  1.0793e-05  0:02:15 1435
   566  4.4043e-05  1.9114e-04  1.0872e-04  4.1164e-03  3.7953e-05  1.7226e-05  1.0620e-05  0:01:48 1434
   567  4.3114e-05  1.8937e-04  1.0708e-04  3.9032e-03  3.7127e-05  1.6968e-05  1.0451e-05  0:01:26 1433
   568  4.2296e-05  1.8755e-04  1.0548e-04  3.7308e-03  3.6417e-05  1.6716e-05  1.0279e-05  0:01:09 1432
   569  4.1582e-05  1.8570e-04  1.0392e-04  3.6026e-03  3.5813e-05  1.6478e-05  1.0110e-05  0:00:55 1431
   570  4.0964e-05  1.8381e-04  1.0240e-04  3.5159e-03  3.5305e-05  1.6247e-05  9.9437e-06  0:05:30 1430
   571  4.0432e-05  1.8189e-04  1.0092e-04  3.4651e-03  3.4881e-05  1.6022e-05  9.7813e-06  0:04:24 1429
   572  3.9974e-05  1.7995e-04  9.9492e-05  3.4447e-03  3.4529e-05  1.5803e-05  9.6233e-06  0:03:31 1428

  iter  continuity  x-velocity  y-velocity  z-velocity      energy           k       omega     time/iter
   573  3.9580e-05  1.7798e-04  9.8114e-05  3.4484e-03  3.4234e-05  1.5596e-05  9.4706e-06  0:02:49 1427
   574  3.9240e-05  1.7601e-04  9.6788e-05  3.4733e-03  3.3987e-05  1.5394e-05  9.3245e-06  0:02:15 1426
   575  3.8944e-05  1.7404e-04  9.5514e-05  3.5104e-03  3.3776e-05  1.5201e-05  9.1902e-06  0:01:48 1425
   576  3.8684e-05  1.7207e-04  9.4293e-05  3.5528e-03  3.3592e-05  1.5012e-05  9.0601e-06  0:01:26 1424
   577  3.8453e-05  1.7011e-04  9.3125e-05  3.5959e-03  3.3427e-05  1.4832e-05  8.9352e-06  0:01:09 1423
   578  3.8246e-05  1.6816e-04  9.2010e-05  3.6374e-03  3.3277e-05  1.4662e-05  8.8173e-06  0:00:55 1422
   579  3.8060e-05  1.6624e-04  9.0948e-05  3.6779e-03  3.3139e-05  1.4496e-05  8.7023e-06  0:05:28 1421
   580  3.7892e-05  1.6434e-04  8.9937e-05  3.7189e-03  3.3009e-05  1.4334e-05  8.5942e-06  0:04:22 1420
   581  3.7741e-05  1.6248e-04  8.8976e-05  3.7611e-03  3.2890e-05  1.4175e-05  8.4951e-06  0:03:30 1419
   582  3.7607e-05  1.6065e-04  8.8063e-05  3.8054e-03  3.2781e-05  1.4019e-05  8.4009e-06  0:02:48 1418
   583  3.7493e-05  1.5887e-04  8.7197e-05  3.8525e-03  3.2685e-05  1.3866e-05  8.3126e-06  0:02:14 1417

  iter  continuity  x-velocity  y-velocity  z-velocity      energy           k       omega     time/iter
   584  3.7399e-05  1.5713e-04  8.6374e-05  3.9035e-03  3.2605e-05  1.3717e-05  8.2284e-06  0:01:47 1416
   585  3.7327e-05  1.5544e-04  8.5592e-05  3.9591e-03  3.2545e-05  1.3572e-05  8.1455e-06  0:01:26 1415
   586  3.7279e-05  1.5381e-04  8.4848e-05  4.0195e-03  3.2506e-05  1.3427e-05  8.0672e-06  0:01:08 1414
   587  3.7257e-05  1.5223e-04  8.4141e-05  4.0824e-03  3.2493e-05  1.3289e-05  7.9913e-06  0:00:55 1413
   588  3.7261e-05  1.5072e-04  8.3465e-05  4.1496e-03  3.2507e-05  1.3152e-05  7.9167e-06  0:05:26 1412
   589  3.7293e-05  1.4926e-04  8.2819e-05  4.2207e-03  3.2549e-05  1.3016e-05  7.8444e-06  0:04:21 1411
   590  3.7350e-05  1.4787e-04  8.2199e-05  4.2951e-03  3.2619e-05  1.2882e-05  7.7722e-06  0:03:28 1410
   591  3.7430e-05  1.4654e-04  8.1602e-05  4.3712e-03  3.2716e-05  1.2751e-05  7.6985e-06  0:02:47 1409
   592  3.7532e-05  1.4527e-04  8.1025e-05  4.4465e-03  3.2838e-05  1.2620e-05  7.6275e-06  0:02:13 1408
   593  3.7651e-05  1.4407e-04  8.0465e-05  4.5193e-03  3.2980e-05  1.2490e-05  7.5565e-06  0:01:47 1407
   594  3.7782e-05  1.4293e-04  7.9918e-05  4.5873e-03  3.3139e-05  1.2360e-05  7.4871e-06  0:01:25 1406

  iter  continuity  x-velocity  y-velocity  z-velocity      energy           k       omega     time/iter
   595  3.7920e-05  1.4185e-04  7.9381e-05  4.6487e-03  3.3307e-05  1.2231e-05  7.4189e-06  0:01:08 1405
   596  3.8057e-05  1.4082e-04  7.8853e-05  4.7013e-03  3.3479e-05  1.2103e-05  7.3490e-06  0:00:54 1404
   597  3.8188e-05  1.3986e-04  7.8329e-05  4.7432e-03  3.3648e-05  1.1976e-05  7.2814e-06  0:05:24 1403
   598  3.8306e-05  1.3895e-04  7.7807e-05  4.7731e-03  3.3806e-05  1.1852e-05  7.2144e-06  0:04:19 1402
   599  3.8404e-05  1.3810e-04  7.7285e-05  4.7894e-03  3.3947e-05  1.1730e-05  7.1476e-06  0:03:27 1401
   600  3.8476e-05  1.3730e-04  7.6761e-05  4.7907e-03  3.4062e-05  1.1609e-05  7.0812e-06  0:02:46 1400
   601  3.8514e-05  1.3654e-04  7.6231e-05  4.7889e-03  3.4146e-05  1.1491e-05  7.0137e-06  0:02:12 1399
   602  3.8512e-05  1.3582e-04  7.5695e-05  4.7803e-03  3.4191e-05  1.1373e-05  6.9482e-06  0:01:46 1398
   603  3.8467e-05  1.3515e-04  7.5150e-05  4.7581e-03  3.4192e-05  1.1260e-05  6.8868e-06  0:01:25 1397
   604  3.8372e-05  1.3451e-04  7.4594e-05  4.7169e-03  3.4144e-05  1.1147e-05  6.8260e-06  0:01:08 1396
   605  3.8224e-05  1.3391e-04  7.4027e-05  4.6525e-03  3.4043e-05  1.1037e-05  6.7668e-06  0:00:54 1395

  iter  continuity  x-velocity  y-velocity  z-velocity      energy           k       omega     time/iter
   606  3.8021e-05  1.3333e-04  7.3446e-05  4.5638e-03  3.3886e-05  1.0935e-05  6.7082e-06  0:05:22 1394
   607  3.7760e-05  1.3278e-04  7.2851e-05  4.4512e-03  3.3671e-05  1.0835e-05  6.6494e-06  0:04:17 1393
   608  3.7441e-05  1.3225e-04  7.2241e-05  4.3165e-03  3.3397e-05  1.0739e-05  6.5941e-06  0:03:26 1392
   609  3.7064e-05  1.3174e-04  7.1615e-05  4.1624e-03  3.3063e-05  1.0644e-05  6.5423e-06  0:02:45 1391
   610  3.6629e-05  1.3124e-04  7.0973e-05  3.9933e-03  3.2671e-05  1.0553e-05  6.4959e-06  0:02:12 1390
   611  3.6139e-05  1.3075e-04  7.0314e-05  3.8091e-03  3.2223e-05  1.0464e-05  6.4520e-06  0:01:45 1389
   612  3.5596e-05  1.3027e-04  6.9639e-05  3.6101e-03  3.1720e-05  1.0375e-05  6.4145e-06  0:01:24 1388
   613  3.5004e-05  1.2979e-04  6.8947e-05  3.4022e-03  3.1166e-05  1.0291e-05  6.3780e-06  0:01:07 1387
   614  3.4366e-05  1.2931e-04  6.8240e-05  3.1909e-03  3.0566e-05  1.0208e-05  6.3414e-06  0:00:54 1386
   615  3.3689e-05  1.2882e-04  6.7516e-05  2.9786e-03  2.9925e-05  1.0124e-05  6.3061e-06  0:05:20 1385
   616  3.2977e-05  1.2833e-04  6.6778e-05  2.7706e-03  2.9248e-05  1.0041e-05  6.2707e-06  0:04:16 1384

  iter  continuity  x-velocity  y-velocity  z-velocity      energy           k       omega     time/iter
   617  3.2236e-05  1.2783e-04  6.6027e-05  2.5722e-03  2.8542e-05  9.9598e-06  6.2368e-06  0:03:24 1383
   618  3.1474e-05  1.2731e-04  6.5262e-05  2.3903e-03  2.7812e-05  9.8800e-06  6.2014e-06  0:02:43 1382
   619  3.0696e-05  1.2678e-04  6.4485e-05  2.2317e-03  2.7067e-05  9.8025e-06  6.1650e-06  0:02:11 1381
   620  2.9911e-05  1.2623e-04  6.3699e-05  2.1042e-03  2.6313e-05  9.7280e-06  6.1262e-06  0:01:44 1380
   621  2.9124e-05  1.2567e-04  6.2903e-05  2.0137e-03  2.5558e-05  9.6558e-06  6.0860e-06  0:01:24 1379
   622  2.8344e-05  1.2508e-04  6.2101e-05  1.9645e-03  2.4810e-05  9.5837e-06  6.0463e-06  0:05:42 1378
   623  2.7577e-05  1.2439e-04  6.1332e-05  1.9578e-03  2.4075e-05  9.5118e-06  6.0066e-06  0:04:34 1377
   624  2.6831e-05  1.2331e-04  6.0750e-05  1.9921e-03  2.3361e-05  9.4422e-06  5.9688e-06  0:03:39 1376
[...]
  1838  2.2056e-08  9.0132e-08  4.7130e-08  1.2349e-06  1.9341e-08  1.3416e-08  7.4745e-09  0:00:23  162
  1839  2.1923e-08  8.9589e-08  4.6847e-08  1.2274e-06  1.9224e-08  1.3331e-08  7.4281e-09  0:00:18  161
  1840  2.1791e-08  8.9049e-08  4.6565e-08  1.2198e-06  1.9108e-08  1.3247e-08  7.3821e-09  0:00:15  160
  1841  2.1659e-08  8.8513e-08  4.6285e-08  1.2123e-06  1.8992e-08  1.3164e-08  7.3363e-09  0:00:12  159
  1842  2.1529e-08  8.7980e-08  4.6007e-08  1.2049e-06  1.8878e-08  1.3081e-08  7.2909e-09  0:00:09  158
  1843  2.1398e-08  8.7450e-08  4.5730e-08  1.1975e-06  1.8763e-08  1.2998e-08  7.2457e-09  0:00:07  157
  1844  2.1269e-08  8.6923e-08  4.5455e-08  1.1901e-06  1.8650e-08  1.2916e-08  7.2008e-09  0:00:06  156
  1845  2.1140e-08  8.6399e-08  4.5181e-08  1.1827e-06  1.8537e-08  1.2835e-08  7.1562e-09  0:00:05  155
  1846  2.1013e-08  8.5879e-08  4.4909e-08  1.1754e-06  1.8425e-08  1.2754e-08  7.1118e-09  0:00:35  154
  1847  2.0886e-08  8.5361e-08  4.4639e-08  1.1681e-06  1.8313e-08  1.2674e-08  7.0678e-09  0:00:27  153
  1848  2.0759e-08  8.4847e-08  4.4370e-08  1.1608e-06  1.8202e-08  1.2594e-08  7.0240e-09  0:00:22  152

  iter  continuity  x-velocity  y-velocity  z-velocity      energy           k       omega     time/iter
  1849  2.0633e-08  8.4336e-08  4.4102e-08  1.1536e-06  1.8092e-08  1.2515e-08  6.9805e-09  0:00:17  151
  1850  2.0509e-08  8.3828e-08  4.3836e-08  1.1464e-06  1.7982e-08  1.2436e-08  6.9373e-09  0:00:14  150
  1851  2.0384e-08  8.3323e-08  4.3572e-08  1.1393e-06  1.7873e-08  1.2357e-08  6.8944e-09  0:00:11  149
  1852  2.0261e-08  8.2821e-08  4.3309e-08  1.1322e-06  1.7765e-08  1.2280e-08  6.8517e-09  0:00:09  148
  1853  2.0138e-08  8.2322e-08  4.3048e-08  1.1251e-06  1.7657e-08  1.2202e-08  6.8093e-09  0:00:07  147
  1854  2.0016e-08  8.1826e-08  4.2788e-08  1.1181e-06  1.7550e-08  1.2125e-08  6.7672e-09  0:00:05  146
  1855  1.9895e-08  8.1333e-08  4.2530e-08  1.1111e-06  1.7444e-08  1.2049e-08  6.7254e-09  0:00:04  145
  1856  1.9774e-08  8.0843e-08  4.2273e-08  1.1041e-06  1.7338e-08  1.1973e-08  6.6838e-09  0:00:32  144
  1857  1.9654e-08  8.0356e-08  4.2017e-08  1.0972e-06  1.7232e-08  1.1898e-08  6.6425e-09  0:00:26  143
  1858  1.9535e-08  7.9872e-08  4.1763e-08  1.0903e-06  1.7128e-08  1.1823e-08  6.6014e-09  0:00:20  142
  1859  1.9416e-08  7.9391e-08  4.1511e-08  1.0834e-06  1.7024e-08  1.1749e-08  6.5606e-09  0:00:16  141

  iter  continuity  x-velocity  y-velocity  z-velocity      energy           k       omega     time/iter
  1860  1.9299e-08  7.8913e-08  4.1260e-08  1.0766e-06  1.6920e-08  1.1675e-08  6.5201e-09  0:00:13  140
  1861  1.9181e-08  7.8437e-08  4.1010e-08  1.0698e-06  1.6818e-08  1.1602e-08  6.4798e-09  0:00:10  139
  1862  1.9065e-08  7.7965e-08  4.0762e-08  1.0631e-06  1.6715e-08  1.1529e-08  6.4398e-09  0:00:08  138
  1863  1.8949e-08  7.7495e-08  4.0516e-08  1.0564e-06  1.6614e-08  1.1456e-08  6.4000e-09  0:00:06  137
  1864  1.8834e-08  7.7029e-08  4.0270e-08  1.0497e-06  1.6513e-08  1.1384e-08  6.3605e-09  0:00:32  136
  1865  1.8720e-08  7.6565e-08  4.0027e-08  1.0430e-06  1.6413e-08  1.1313e-08  6.3213e-09  0:00:26  135
  1866  1.8606e-08  7.6104e-08  3.9784e-08  1.0364e-06  1.6313e-08  1.1242e-08  6.2823e-09  0:00:20  134
  1867  1.8493e-08  7.5645e-08  3.9543e-08  1.0299e-06  1.6214e-08  1.1171e-08  6.2436e-09  0:00:16  133
  1868  1.8381e-08  7.5190e-08  3.9303e-08  1.0233e-06  1.6115e-08  1.1101e-08  6.2051e-09  0:00:13  132
  1869  1.8269e-08  7.4737e-08  3.9065e-08  1.0169e-06  1.6017e-08  1.1032e-08  6.1668e-09  0:00:10  131
  1870  1.8158e-08  7.4287e-08  3.8828e-08  1.0104e-06  1.5919e-08  1.0962e-08  6.1288e-09  0:00:08  130

  iter  continuity  x-velocity  y-velocity  z-velocity      energy           k       omega     time/iter
  1871  1.8047e-08  7.3840e-08  3.8593e-08  1.0040e-06  1.5823e-08  1.0894e-08  6.0911e-09  0:00:06  129
  1872  1.7938e-08  7.3395e-08  3.8359e-08  9.9760e-07  1.5726e-08  1.0825e-08  6.0536e-09  0:00:05  128
  1873  1.7829e-08  7.2954e-08  3.8126e-08  9.9125e-07  1.5631e-08  1.0758e-08  6.0163e-09  0:00:29  127
  1874  1.7720e-08  7.2514e-08  3.7895e-08  9.8495e-07  1.5536e-08  1.0690e-08  5.9793e-09  0:00:23  126
  1875  1.7612e-08  7.2078e-08  3.7665e-08  9.7867e-07  1.5441e-08  1.0623e-08  5.9425e-09  0:00:19  125
  1876  1.7505e-08  7.1644e-08  3.7436e-08  9.7244e-07  1.5347e-08  1.0557e-08  5.9060e-09  0:00:15  124
  1877  1.7399e-08  7.1213e-08  3.7209e-08  9.6624e-07  1.5254e-08  1.0491e-08  5.8696e-09  0:00:12  123
  1878  1.7293e-08  7.0784e-08  3.6983e-08  9.6007e-07  1.5161e-08  1.0425e-08  5.8336e-09  0:00:09  122
  1879  1.7188e-08  7.0358e-08  3.6759e-08  9.5394e-07  1.5068e-08  1.0360e-08  5.7977e-09  0:00:07  121
  1880  1.7083e-08  6.9935e-08  3.6535e-08  9.4785e-07  1.4977e-08  1.0295e-08  5.7621e-09  0:00:06  120
  1881  1.6979e-08  6.9514e-08  3.6313e-08  9.4178e-07  1.4885e-08  1.0231e-08  5.7267e-09  0:00:05  119

  iter  continuity  x-velocity  y-velocity  z-velocity      energy           k       omega     time/iter
  1882  1.6876e-08  6.9096e-08  3.6093e-08  9.3576e-07  1.4795e-08  1.0167e-08  5.6916e-09  0:00:04  118
  1883  1.6773e-08  6.8680e-08  3.5873e-08  9.2977e-07  1.4705e-08  1.0104e-08  5.6567e-09  0:00:26  117
  1884  1.6671e-08  6.8267e-08  3.5655e-08  9.2382e-07  1.4615e-08  1.0041e-08  5.6220e-09  0:00:21  116
  1885  1.6569e-08  6.7856e-08  3.5439e-08  9.1790e-07  1.4526e-08  9.9783e-09  5.5875e-09  0:00:17  115
  1886  1.6469e-08  6.7448e-08  3.5223e-08  9.1202e-07  1.4437e-08  9.9161e-09  5.5533e-09  0:00:13  114
  1887  1.6368e-08  6.7042e-08  3.5009e-08  9.0616e-07  1.4349e-08  9.8543e-09  5.5192e-09  0:00:10  113
  1888  1.6269e-08  6.6639e-08  3.4796e-08  9.0035e-07  1.4262e-08  9.7930e-09  5.4854e-09  0:00:08  112
  1889  1.6169e-08  6.6238e-08  3.4584e-08  8.9457e-07  1.4175e-08  9.7320e-09  5.4518e-09  0:00:07  111
  1890  1.6071e-08  6.5840e-08  3.4374e-08  8.8882e-07  1.4089e-08  9.6715e-09  5.4185e-09  0:00:05  110
  1891  1.5973e-08  6.5444e-08  3.4165e-08  8.8310e-07  1.4003e-08  9.6114e-09  5.3853e-09  0:00:04  109
  1892  1.5876e-08  6.5051e-08  3.3957e-08  8.7742e-07  1.3917e-08  9.5516e-09  5.3524e-09  0:00:03  108

  iter  continuity  x-velocity  y-velocity  z-velocity      energy           k       omega     time/iter
  1893  1.5779e-08  6.4659e-08  3.3750e-08  8.7178e-07  1.3833e-08  9.4923e-09  5.3197e-09  0:00:24  107
  1894  1.5683e-08  6.4271e-08  3.3545e-08  8.6617e-07  1.3748e-08  9.4334e-09  5.2872e-09  0:00:19  106
  1895  1.5587e-08  6.3884e-08  3.3341e-08  8.6059e-07  1.3664e-08  9.3748e-09  5.2549e-09  0:00:15  105
  1896  1.5492e-08  6.3500e-08  3.3138e-08  8.5504e-07  1.3581e-08  9.3167e-09  5.2228e-09  0:00:12  104
  1897  1.5398e-08  6.3119e-08  3.2936e-08  8.4953e-07  1.3498e-08  9.2589e-09  5.1909e-09  0:00:09  103
  1898  1.5304e-08  6.2739e-08  3.2736e-08  8.4405e-07  1.3416e-08  9.2015e-09  5.1592e-09  0:00:07  102
  1899  1.5211e-08  6.2362e-08  3.2536e-08  8.3861e-07  1.3334e-08  9.1446e-09  5.1278e-09  0:00:06  101
  1900  1.5118e-08  6.1988e-08  3.2338e-08  8.3320e-07  1.3253e-08  9.0880e-09  5.0965e-09  0:00:05  100
  1901  1.5026e-08  6.1615e-08  3.2141e-08  8.2782e-07  1.3172e-08  9.0317e-09  5.0655e-09  0:00:04   99
  1902  1.4934e-08  6.1245e-08  3.1945e-08  8.2247e-07  1.3092e-08  8.9759e-09  5.0346e-09  0:00:03   98
  1903  1.4843e-08  6.0877e-08  3.1751e-08  8.1715e-07  1.3012e-08  8.9204e-09  5.0040e-09  0:00:22   97

  iter  continuity  x-velocity  y-velocity  z-velocity      energy           k       omega     time/iter
  1904  1.4753e-08  6.0511e-08  3.1557e-08  8.1187e-07  1.2932e-08  8.8653e-09  4.9735e-09  0:00:17   96
  1905  1.4663e-08  6.0148e-08  3.1365e-08  8.0662e-07  1.2854e-08  8.8106e-09  4.9432e-09  0:00:14   95
  1906  1.4573e-08  5.9787e-08  3.1174e-08  8.0141e-07  1.2775e-08  8.7562e-09  4.9132e-09  0:00:11   94
  1907  1.4484e-08  5.9428e-08  3.0984e-08  7.9622e-07  1.2697e-08  8.7022e-09  4.8833e-09  0:00:09   93
  1908  1.4396e-08  5.9071e-08  3.0795e-08  7.9107e-07  1.2620e-08  8.6486e-09  4.8536e-09  0:00:07   92
  1909  1.4308e-08  5.8716e-08  3.0608e-08  7.8595e-07  1.2543e-08  8.5953e-09  4.8241e-09  0:00:05   91
  1910  1.4221e-08  5.8364e-08  3.0421e-08  7.8086e-07  1.2466e-08  8.5424e-09  4.7949e-09  0:00:04   90
  1911  1.4134e-08  5.8013e-08  3.0236e-08  7.7581e-07  1.2390e-08  8.4898e-09  4.7658e-09  0:00:03   89
  1912  1.4048e-08  5.7665e-08  3.0051e-08  7.7079e-07  1.2315e-08  8.4376e-09  4.7368e-09  0:00:20   88
  1913  1.3963e-08  5.7319e-08  2.9868e-08  7.6580e-07  1.2239e-08  8.3858e-09  4.7081e-09  0:00:16   87
  1914  1.3877e-08  5.6975e-08  2.9686e-08  7.6084e-07  1.2165e-08  8.3342e-09  4.6796e-09  0:00:13   86

  iter  continuity  x-velocity  y-velocity  z-velocity      energy           k       omega     time/iter
  1915  1.3793e-08  5.6633e-08  2.9505e-08  7.5591e-07  1.2091e-08  8.2831e-09  4.6512e-09  0:00:10   85
  1916  1.3709e-08  5.6293e-08  2.9325e-08  7.5102e-07  1.2017e-08  8.2323e-09  4.6231e-09  0:00:08   84
  1917  1.3625e-08  5.5955e-08  2.9147e-08  7.4615e-07  1.1944e-08  8.1818e-09  4.5951e-09  0:00:06   83
  1918  1.3542e-08  5.5619e-08  2.8969e-08  7.4132e-07  1.1871e-08  8.1316e-09  4.5673e-09  0:00:05   82
  1919  1.3460e-08  5.5286e-08  2.8792e-08  7.3653e-07  1.1798e-08  8.0818e-09  4.5396e-09  0:00:04   81
  1920  1.3378e-08  5.4954e-08  2.8617e-08  7.3176e-07  1.1726e-08  8.0323e-09  4.5122e-09  0:00:03   80
  1921  1.3296e-08  5.4624e-08  2.8442e-08  7.2702e-07  1.1655e-08  7.9832e-09  4.4849e-09  0:00:02   79
  1922  1.3215e-08  5.4297e-08  2.8269e-08  7.2231e-07  1.1584e-08  7.9344e-09  4.4578e-09  0:00:18   78
  1923  1.3134e-08  5.3971e-08  2.8097e-08  7.1764e-07  1.1513e-08  7.8859e-09  4.4309e-09  0:00:14   77
  1924  1.3054e-08  5.3648e-08  2.7925e-08  7.1299e-07  1.1443e-08  7.8377e-09  4.4041e-09  0:00:11   76
  1925  1.2975e-08  5.3326e-08  2.7755e-08  7.0838e-07  1.1373e-08  7.7899e-09  4.3776e-09  0:00:09   75

  iter  continuity  x-velocity  y-velocity  z-velocity      energy           k       omega     time/iter
  1926  1.2896e-08  5.3006e-08  2.7586e-08  7.0380e-07  1.1304e-08  7.7424e-09  4.3512e-09  0:00:07   74
  1927  1.2817e-08  5.2688e-08  2.7418e-08  6.9925e-07  1.1235e-08  7.6952e-09  4.3249e-09  0:00:05   73
  1928  1.2739e-08  5.2372e-08  2.7251e-08  6.9473e-07  1.1167e-08  7.6483e-09  4.2989e-09  0:00:04   72
  1929  1.2662e-08  5.2059e-08  2.7085e-08  6.9024e-07  1.1099e-08  7.6017e-09  4.2730e-09  0:00:03   71
  1930  1.2584e-08  5.1747e-08  2.6920e-08  6.8578e-07  1.1031e-08  7.5555e-09  4.2472e-09  0:00:03   70
  1931  1.2508e-08  5.1436e-08  2.6756e-08  6.8135e-07  1.0964e-08  7.5095e-09  4.2217e-09  0:00:02   69
  1932  1.2432e-08  5.1128e-08  2.6592e-08  6.7695e-07  1.0897e-08  7.4639e-09  4.1963e-09  0:00:15   68
  1933  1.2356e-08  5.0822e-08  2.6430e-08  6.7258e-07  1.0831e-08  7.4185e-09  4.1710e-09  0:00:12   67
  1934  1.2281e-08  5.0517e-08  2.6269e-08  6.6824e-07  1.0765e-08  7.3735e-09  4.1460e-09  0:00:09   66
  1935  1.2206e-08  5.0215e-08  2.6109e-08  6.6393e-07  1.0699e-08  7.3288e-09  4.1211e-09  0:00:07   65
  1936  1.2132e-08  4.9914e-08  2.5950e-08  6.5965e-07  1.0634e-08  7.2843e-09  4.0963e-09  0:00:06   64

  iter  continuity  x-velocity  y-velocity  z-velocity      energy           k       omega     time/iter
  1937  1.2058e-08  4.9615e-08  2.5792e-08  6.5540e-07  1.0569e-08  7.2402e-09  4.0717e-09  0:00:05   63
  1938  1.1984e-08  4.9318e-08  2.5635e-08  6.5118e-07  1.0505e-08  7.1963e-09  4.0473e-09  0:00:04   62
  1939  1.1912e-08  4.9022e-08  2.5479e-08  6.4698e-07  1.0441e-08  7.1528e-09  4.0230e-09  0:00:03   61
  1940  1.1839e-08  4.8729e-08  2.5324e-08  6.4281e-07  1.0377e-08  7.1095e-09  3.9989e-09  0:00:02   60
  1941  1.1767e-08  4.8437e-08  2.5169e-08  6.3868e-07  1.0314e-08  7.0665e-09  3.9749e-09  0:00:02   59
  1942  1.1695e-08  4.8147e-08  2.5016e-08  6.3457e-07  1.0252e-08  7.0238e-09  3.9511e-09  0:00:13   58
  1943  1.1624e-08  4.7859e-08  2.4864e-08  6.3048e-07  1.0189e-08  6.9814e-09  3.9274e-09  0:00:10   57
  1944  1.1554e-08  4.7572e-08  2.4712e-08  6.2643e-07  1.0127e-08  6.9393e-09  3.9039e-09  0:00:08   56
  1945  1.1483e-08  4.7287e-08  2.4562e-08  6.2241e-07  1.0066e-08  6.8974e-09  3.8805e-09  0:00:06   55
  1946  1.1414e-08  4.7004e-08  2.4412e-08  6.1841e-07  1.0004e-08  6.8559e-09  3.8573e-09  0:00:05   54
  1947  1.1344e-08  4.6723e-08  2.4264e-08  6.1444e-07  9.9437e-09  6.8146e-09  3.8343e-09  0:00:04   53

  iter  continuity  x-velocity  y-velocity  z-velocity      energy           k       omega     time/iter
  1948  1.1275e-08  4.6444e-08  2.4116e-08  6.1049e-07  9.8832e-09  6.7735e-09  3.8113e-09  0:00:03   52
  1949  1.1207e-08  4.6166e-08  2.3969e-08  6.0658e-07  9.8232e-09  6.7328e-09  3.7886e-09  0:00:02   51
  1950  1.1139e-08  4.5889e-08  2.3823e-08  6.0269e-07  9.7635e-09  6.6923e-09  3.7659e-09  0:00:02   50
  1951  1.1071e-08  4.5615e-08  2.3678e-08  5.9882e-07  9.7042e-09  6.6521e-09  3.7435e-09  0:00:01   49
  1952  1.1004e-08  4.5342e-08  2.3534e-08  5.9499e-07  9.6452e-09  6.6121e-09  3.7211e-09  0:00:11   48
  1953  1.0937e-08  4.5071e-08  2.3391e-08  5.9117e-07  9.5867e-09  6.5724e-09  3.6989e-09  0:00:08   47
  1954  1.0871e-08  4.4801e-08  2.3249e-08  5.8739e-07  9.5285e-09  6.5330e-09  3.6769e-09  0:00:07   46
  1955  1.0805e-08  4.4533e-08  2.3107e-08  5.8363e-07  9.4706e-09  6.4939e-09  3.6549e-09  0:00:05   45
  1956  1.0739e-08  4.4267e-08  2.2967e-08  5.7990e-07  9.4131e-09  6.4549e-09  3.6332e-09  0:00:04   44
  1957  1.0674e-08  4.4002e-08  2.2827e-08  5.7619e-07  9.3560e-09  6.4163e-09  3.6115e-09  0:00:03   43
  1958  1.0609e-08  4.3739e-08  2.2688e-08  5.7251e-07  9.2992e-09  6.3779e-09  3.5900e-09  0:00:02   42

  iter  continuity  x-velocity  y-velocity  z-velocity      energy           k       omega     time/iter
  1959  1.0545e-08  4.3478e-08  2.2551e-08  5.6885e-07  9.2428e-09  6.3397e-09  3.5686e-09  0:00:02   41
  1960  1.0481e-08  4.3218e-08  2.2413e-08  5.6522e-07  9.1867e-09  6.3018e-09  3.5474e-09  0:00:02   40
  1961  1.0417e-08  4.2960e-08  2.2277e-08  5.6161e-07  9.1310e-09  6.2642e-09  3.5263e-09  0:00:09   39
  1962  1.0354e-08  4.2703e-08  2.2142e-08  5.5803e-07  9.0756e-09  6.2268e-09  3.5053e-09  0:00:07   38
  1963  1.0291e-08  4.2448e-08  2.2007e-08  5.5447e-07  9.0206e-09  6.1896e-09  3.4845e-09  0:00:05   37
  1964  1.0229e-08  4.2194e-08  2.1874e-08  5.5094e-07  8.9659e-09  6.1527e-09  3.4638e-09  0:00:04   36
  1965  1.0167e-08  4.1942e-08  2.1741e-08  5.4743e-07  8.9116e-09  6.1160e-09  3.4432e-09  0:00:03   35
  1966  1.0105e-08  4.1691e-08  2.1609e-08  5.4395e-07  8.8576e-09  6.0796e-09  3.4228e-09  0:00:03   34
  1967  1.0044e-08  4.1442e-08  2.1478e-08  5.4048e-07  8.8039e-09  6.0434e-09  3.4025e-09  0:00:02   33
  1968  9.9831e-09  4.1195e-08  2.1347e-08  5.3705e-07  8.7506e-09  6.0074e-09  3.3823e-09  0:00:02   32
  1969  9.9226e-09  4.0949e-08  2.1218e-08  5.3364e-07  8.6976e-09  5.9717e-09  3.3622e-09  0:00:01   31

  iter  continuity  x-velocity  y-velocity  z-velocity      energy           k       omega     time/iter
  1970  9.8625e-09  4.0704e-08  2.1089e-08  5.3025e-07  8.6449e-09  5.9362e-09  3.3423e-09  0:00:01   30
  1971  9.8028e-09  4.0461e-08  2.0961e-08  5.2688e-07  8.5925e-09  5.9009e-09  3.3225e-09  0:00:07   29
  1972  9.7434e-09  4.0219e-08  2.0834e-08  5.2354e-07  8.5405e-09  5.8659e-09  3.3028e-09  0:00:05   28
  1973  9.6845e-09  3.9979e-08  2.0707e-08  5.2022e-07  8.4888e-09  5.8311e-09  3.2832e-09  0:00:04   27
  1974  9.6258e-09  3.9741e-08  2.0582e-08  5.1692e-07  8.4375e-09  5.7965e-09  3.2638e-09  0:00:03   26
  1975  9.5676e-09  3.9503e-08  2.0457e-08  5.1365e-07  8.3864e-09  5.7621e-09  3.2444e-09  0:00:02   25
  1976  9.5097e-09  3.9268e-08  2.0333e-08  5.1040e-07  8.3357e-09  5.7279e-09  3.2252e-09  0:00:02   24
  1977  9.4522e-09  3.9033e-08  2.0209e-08  5.0718e-07  8.2853e-09  5.6940e-09  3.2061e-09  0:00:01   23
  1978  9.3950e-09  3.8800e-08  2.0087e-08  5.0397e-07  8.2352e-09  5.6603e-09  3.1872e-09  0:00:05   22
  1979  9.3382e-09  3.8569e-08  1.9965e-08  5.0079e-07  8.1854e-09  5.6268e-09  3.1683e-09  0:00:04   21
  1980  9.2818e-09  3.8338e-08  1.9844e-08  4.9763e-07  8.1359e-09  5.5935e-09  3.1496e-09  0:00:03   20

  iter  continuity  x-velocity  y-velocity  z-velocity      energy           k       omega     time/iter
  1981  9.2257e-09  3.8110e-08  1.9724e-08  4.9449e-07  8.0867e-09  5.5605e-09  3.1310e-09  0:00:02   19
  1982  9.1699e-09  3.7882e-08  1.9604e-08  4.9137e-07  8.0379e-09  5.5276e-09  3.1125e-09  0:00:02   18
  1983  9.1145e-09  3.7656e-08  1.9486e-08  4.8828e-07  7.9893e-09  5.4950e-09  3.0941e-09  0:00:01   17
  1984  9.0594e-09  3.7432e-08  1.9368e-08  4.8520e-07  7.9410e-09  5.4625e-09  3.0758e-09  0:00:01   16
  1985  9.0047e-09  3.7208e-08  1.9250e-08  4.8215e-07  7.8931e-09  5.4303e-09  3.0577e-09  0:00:01   15
  1986  8.9503e-09  3.6986e-08  1.9134e-08  4.7912e-07  7.8454e-09  5.3983e-09  3.0396e-09  0:00:01   14
  1987  8.8963e-09  3.6766e-08  1.9018e-08  4.7611e-07  7.7981e-09  5.3664e-09  3.0217e-09  0:00:00   13
  1988  8.8426e-09  3.6546e-08  1.8903e-08  4.7312e-07  7.7510e-09  5.3348e-09  3.0039e-09  0:00:03   12
  1989  8.7892e-09  3.6328e-08  1.8789e-08  4.7016e-07  7.7043e-09  5.3034e-09  2.9862e-09  0:00:02   11
  1990  8.7362e-09  3.6112e-08  1.8675e-08  4.6722e-07  7.6578e-09  5.2722e-09  2.9686e-09  0:00:01   10
  1991  8.6835e-09  3.5896e-08  1.8562e-08  4.6429e-07  7.6116e-09  5.2411e-09  2.9511e-09  0:00:01    9

  iter  continuity  x-velocity  y-velocity  z-velocity      energy           k       omega     time/iter
  1992  8.6311e-09  3.5682e-08  1.8450e-08  4.6139e-07  7.5657e-09  5.2103e-09  2.9337e-09  0:00:01    8
  1993  8.5791e-09  3.5469e-08  1.8338e-08  4.5850e-07  7.5201e-09  5.1797e-09  2.9164e-09  0:00:01    7
  1994  8.5274e-09  3.5258e-08  1.8227e-08  4.5564e-07  7.4748e-09  5.1492e-09  2.8992e-09  0:00:00    6
  1995  8.4760e-09  3.5048e-08  1.8117e-08  4.5279e-07  7.4297e-09  5.1190e-09  2.8821e-09  0:00:00    5
  1996  8.4249e-09  3.4839e-08  1.8008e-08  4.4997e-07  7.3850e-09  5.0889e-09  2.8652e-09  0:00:00    4
  1997  8.3742e-09  3.4631e-08  1.7899e-08  4.4717e-07  7.3405e-09  5.0591e-09  2.8483e-09  0:00:01    3
  1998  8.3237e-09  3.4425e-08  1.7791e-08  4.4439e-07  7.2963e-09  5.0294e-09  2.8315e-09  0:00:00    2
  1999  8.2736e-09  3.4220e-08  1.7683e-08  4.4162e-07  7.2524e-09  4.9999e-09  2.8149e-09  0:00:00    1
  2000  8.2238e-09  3.4016e-08  1.7577e-08  4.3888e-07  7.2087e-09  4.9706e-09  2.7983e-09  0:00:00    0

> 
adjoint/                parallel/               server/
define/                 parametric-study/       solve/
display/                plot/                   surface/
exit                    preferences/            turbo-workflow/
file/                   print-license-usage     views/
mesh/                   report/

> /file/write-case-data project1
Fast-loading "C:\PROGRA~1\ANSYSI~1\v231\fluent\fluent23.1.0\\addons\afd\lib\hdfio.bin"
Done.

Writing to Engs-30669:"C:\Users\kebl7595\Desktop\CFD\Runs\Viscous\Mach 0.3\6 degrees\project1.cas.h5" in NODE0 mode and compression level 1 ...
       12996 cells,     1 zone  ...
       43722 faces,     8 zones ...
       17864 nodes,     1 zone  ...
  Done.
Done.

Writing to Engs-30669:"C:\Users\kebl7595\Desktop\CFD\Runs\Viscous\Mach 0.3\6 degrees\project1.dat.h5" in NODE0 mode and compression level 1 ...
  Writing results.
Done.

> /file/export/ascii "./surface.dat" wing te () no pressure mach-number quit no

Writing "./surface.dat"...

Writing information to ascii file ...
Done.


> /report/forces/wall-forces y -0.10453 0.99452 0 y "Lift"

> /report/forces/wall-forces y 0.99452 0.10453 0 y "Drag"

> /exit

Posting ANSYS Product Improvement Program performance data 
Done.
Auto-Transcript Stop Time:  14:01:07, 21 May 2024 GMT Daylight Time 
Total Transcript Time: 4 Minute 30 Second.
