Auto-Transcript Start Time:  13:55:52, 21 May 2024 GMT Daylight Time 
Current Directory: "C:\Users\kebl7595\Desktop\CFD\Runs\Viscous\Mach 0.3\0 degrees"

              Welcome to ANSYS Fluent 2023 R1

              Copyright 1987-2023 ANSYS, Inc. All Rights Reserved.
              Unauthorized use, distribution or duplication is prohibited.
              This product is subject to U.S. laws governing export and re-export.
              For full Legal Notice, see documentation.

Build Time: Nov 28 2022 09:52:02 EST  Build Id: 10208  
 
Connected License Server List:	1055@ansyslic.eng.ox.ac.uk

*********************************************
Info: Your license enables 4-way parallel execution.
For faster simulations, please start the application with the appropriate parallel options.
*********************************************


     --------------------------------------------------------------
     This is an academic version of ANSYS FLUENT. Usage of this product
     license is limited to the terms and conditions specified in your ANSYS
     license form, additional terms section.
     --------------------------------------------------------------
Host spawning Node 0 on machine "Engs-30669" (win64).

------------------------------------------------------------------------------------
ID    Hostname    Core  O.S.         PID    Vendor                                 
------------------------------------------------------------------------------------
n0    Engs-30669  1/32  Windows-x64  17896  13th Gen Intel(R) Core(TM) i9-13900    
host  Engs-30669        Windows-x64  46248  13th Gen Intel(R) Core(TM) i9-13900    

MPI Option Selected: intel
------------------------------------------------------------------------------------

Cleanup script file is C:\\Users\\kebl7595\\Desktop\\CFD\\Runs\\Viscous\\Mach 0.3\\0 degrees\\cleanup-fluent-Engs-30669-46248.bat
QA Service Message :
QA Services Agreement Enabled. This application is included in the scope of an ANSYS QA Services Agreement.
Posting ANSYS Product Improvement Program startup data
Done.

Reading journal file C:/Users/kebl7595/Desktop/CFD/Runs/Viscous/Mach 0.3/0 degrees/project1.jou...

> /file/set-batch-options no no no 

> 
define/                 parametric-study/       solve/
display/                plot/                   surface/
exit                    preferences/            switch-to-meshing-mode
file/                   print-license-usage     turbo-workflow/
mesh/                   report/                 views/
parallel/               server/

> /file/import/cgns/mesh  "./project1.cgns"Note: Rank = 0: Process affinity not being set (6).

Importing "./project1.cgns"

Opening library "C:\\PROGRA~1\\ANSYSI~1\\v231\\fluent\\fluent23.1.0\\vki\\win64\\devtools4.4.6.dll"... done.

Read    17864 nodes
   12996 hexahedral cells, zone  1
    9462 quadrilateral wall faces, zone  2.
   33972 quadrilateral interior faces, zone  3.
     282 quadrilateral interface faces, zone  4.
       6 quadrilateral wall faces, zone  5.

Building...
     mesh
     materials,
     interface,
     domains,
     zones,
	default_exterior-1
	interface-default_subface
	default_interior-1
	default_subface
	default
     parallel,
The automatic selection for flux type has changed to Rhie-Chow: momentum based.

Done.


> 
adjoint/                parallel/               server/
define/                 parametric-study/       solve/
display/                plot/                   surface/
exit                    preferences/            turbo-workflow/
file/                   print-license-usage     views/
mesh/                   report/

> /define/models/solver/density-based-implicit yes

> 
adjoint/                parallel/               server/
define/                 parametric-study/       solve/
display/                plot/                   surface/
exit                    preferences/            turbo-workflow/
file/                   print-license-usage     views/
mesh/                   report/

> /define/models/energy? yes yes invalid command [yes]
yes

> /define/models/viscous/kw-standard? yes

> 
adjoint/                parallel/               server/
define/                 parametric-study/       solve/
display/                plot/                   surface/
exit                    preferences/            turbo-workflow/
file/                   print-license-usage     views/
mesh/                   report/

> /define/materials/change-create air air air is a fluid
yes 
Density
ideal-gas no data required.

no no no no no no

> 
adjoint/                parallel/               server/
define/                 parametric-study/       solve/
display/                plot/                   surface/
exit                    preferences/            turbo-workflow/
file/                   print-license-usage     views/
mesh/                   report/

> /mesh/modify-zones/sep-face-zone-angle 2 90 yes

 4332 faces in contiguous region 0
 228 faces in contiguous region 1
 342 faces in contiguous region 2
 4332 faces in contiguous region 3
 228 faces in contiguous region 4
 Separates zone 2 into 5 zone(s).
Updating new zone information...
   created new zone default_subface:010 from default_subface
   created new zone default_subface:009 from default_subface
   created new zone default_subface:008 from default_subface
   created new zone default_subface:007 from default_subface
done.

> 
adjoint/                parallel/               server/
define/                 parametric-study/       solve/
display/                plot/                   surface/
exit                    preferences/            turbo-workflow/
file/                   print-license-usage     views/
mesh/                   report/

> /define/boundary-conditions/zone-name  5   te

> /define/boundary-conditions/zone-name  7 wing

> /define/boundary-conditions/zone-name  2 sym1

> /define/boundary-conditions/zone-name  9 sym2

> 
adjoint/                parallel/               server/
define/                 parametric-study/       solve/
display/                plot/                   surface/
exit                    preferences/            turbo-workflow/
file/                   print-license-usage     views/
mesh/                   report/

> /define/boundary-conditions/zone-name  8 far1

> /define/boundary-conditions/zone-name 10 far2

> 
adjoint/                parallel/               server/
define/                 parametric-study/       solve/
display/                plot/                   surface/
exit                    preferences/            turbo-workflow/
file/                   print-license-usage     views/
mesh/                   report/

> /define/boundary-conditions/zone-type  8 pressure-far-field

> /define/boundary-conditions/zone-type 10 pressure-far-field

> /define/boundary-conditions/zone-type  2 symmetry

> /define/boundary-conditions/zone-type  9 symmetry

> 
adjoint/                parallel/               server/
define/                 parametric-study/       solve/
display/                plot/                   surface/
exit                    preferences/            turbo-workflow/
file/                   print-license-usage     views/
mesh/                   report/

> /define/boundary-conditions/pressure-far-field (far2 far1)
far1 no 0 no 0.3 no 300 yes no 1 no 0 no 0. no yes 5 0.02

> /define/boundary-conditions/pressure-far-field (far2 far1)
far2 no 0 no 0.3 no 300 yes no 1 no 0 no 0. no yes 5 0.02

> 
adjoint/                parallel/               server/
define/                 parametric-study/       solve/
display/                plot/                   surface/
exit                    preferences/            turbo-workflow/
file/                   print-license-usage     views/
mesh/                   report/

> /solve/initialize/compute-defaults/pressure-far-field (far2 far1)
far1

> /solve/initialize/initialize-flow

> 
adjoint/                parallel/               server/
define/                 parametric-study/       solve/
display/                plot/                   surface/
exit                    preferences/            turbo-workflow/
file/                   print-license-usage     views/
mesh/                   report/

> /solve/monitors/residual/convergence-criteria 1.e-9 1.e-9 1.e-9 1.e-9 1.e-9 1.e-9 1.e-9

> /solve/iterate 2000

  iter  continuity  x-velocity  y-velocity  z-velocity      energy           k       omega     time/iter
     1  1.0000e+00  1.0000e+00  1.0000e+00  1.0000e+00  1.0000e+00  1.7588e-01  1.2891e-01  0:00:00 1999
     2  5.0147e-01  3.7339e-01  4.4540e-01  1.0000e+00  5.0691e-01  1.3583e-01  1.0400e-01  0:00:00 1998
     3  2.8252e-01  2.1666e-01  2.4002e-01  8.2641e-01  2.8405e-01  1.0834e-01  8.6323e-02  0:00:00 1997
     4  1.8784e-01  1.8406e-01  1.6011e-01  5.1345e-01  1.8828e-01  8.9221e-02  7.3031e-02  0:00:00 1996
     5  1.4219e-01  1.4719e-01  1.1141e-01  8.6833e-01  1.4271e-01  7.6358e-02  6.2873e-02  0:00:00 1995
     6  1.1937e-01  1.0764e-01  7.8997e-02  1.0193e+00  1.2035e-01  6.6648e-02  5.5374e-02  0:00:00 1994
     7  1.0484e-01  8.0157e-02  5.7983e-02  1.0604e+00  1.0621e-01  5.8783e-02  4.9390e-02  0:33:13 1993
     8  9.2303e-02  6.1346e-02  4.4811e-02  9.4582e-01  9.3848e-02  5.2280e-02  4.4454e-02  0:26:34 1992
     9  8.1312e-02  4.9117e-02  3.6493e-02  8.1118e-01  8.2875e-02  4.6847e-02  4.0269e-02  0:21:14 1991
    10  7.1601e-02  4.1040e-02  3.0863e-02  7.3870e-01  7.3085e-02  4.2295e-02  3.6684e-02  0:16:59 1990
    11  6.3600e-02  3.5894e-02  2.6635e-02  7.0680e-01  6.4969e-02  3.8508e-02  3.3593e-02  0:13:35 1989

  iter  continuity  x-velocity  y-velocity  z-velocity      energy           k       omega     time/iter
    12  5.7253e-02  3.2882e-02  2.3195e-02  6.9964e-01  5.8503e-02  3.5309e-02  3.0917e-02  0:10:51 1988
    13  5.2510e-02  3.1537e-02  2.0253e-02  7.3084e-01  5.3654e-02  3.2554e-02  2.8617e-02  0:08:41 1987
    14  4.9221e-02  3.1170e-02  1.7655e-02  8.1238e-01  5.0276e-02  3.0156e-02  2.6594e-02  0:06:56 1986
    15  4.7270e-02  3.1294e-02  1.5432e-02  9.4894e-01  4.8253e-02  2.8059e-02  2.4797e-02  0:05:33 1985
    16  4.6308e-02  3.1796e-02  1.3618e-02  1.1361e+00  4.7231e-02  2.6217e-02  2.3197e-02  0:04:26 1984
    17  4.6161e-02  3.2726e-02  1.2230e-02  1.3651e+00  4.7033e-02  2.4594e-02  2.1775e-02  0:03:33 1983
    18  4.6604e-02  3.3976e-02  1.1251e-02  1.6218e+00  4.7434e-02  2.3131e-02  2.0490e-02  0:02:50 1982
    19  4.7439e-02  3.5386e-02  1.0655e-02  1.8924e+00  4.8228e-02  2.1807e-02  1.9320e-02  0:02:16 1981
    20  4.8480e-02  3.6813e-02  1.0402e-02  2.1618e+00  4.9227e-02  2.0601e-02  1.8257e-02  0:08:25 1980
    21  4.9578e-02  3.8137e-02  1.0427e-02  2.4154e+00  5.0278e-02  1.9493e-02  1.7285e-02  0:06:44 1979
    22  5.0597e-02  3.9234e-02  1.0732e-02  2.6384e+00  5.1244e-02  1.8463e-02  1.6389e-02  0:05:23 1978

  iter  continuity  x-velocity  y-velocity  z-velocity      energy           k       omega     time/iter
    23  5.1407e-02  4.0002e-02  1.1283e-02  2.8180e+00  5.1994e-02  1.7509e-02  1.5563e-02  0:04:18 1977
    24  5.1895e-02  4.0376e-02  1.2000e-02  2.9456e+00  5.2415e-02  1.6616e-02  1.4797e-02  0:03:26 1976
    25  5.1979e-02  4.0319e-02  1.2782e-02  3.0128e+00  5.2426e-02  1.5782e-02  1.4087e-02  0:02:45 1975
    26  5.1608e-02  3.9825e-02  1.3557e-02  3.0153e+00  5.1980e-02  1.4999e-02  1.3427e-02  0:02:12 1974
    27  5.0756e-02  3.8895e-02  1.4245e-02  2.9501e+00  5.1051e-02  1.4268e-02  1.2810e-02  0:01:46 1973
    28  4.9418e-02  3.7530e-02  1.4811e-02  2.8143e+00  4.9638e-02  1.3587e-02  1.2232e-02  0:01:24 1972
    29  4.7609e-02  3.5810e-02  1.5192e-02  2.5758e+00  4.7759e-02  1.2950e-02  1.1691e-02  0:01:07 1971
    30  4.5362e-02  3.3759e-02  1.5380e-02  2.4181e+00  4.5449e-02  1.2351e-02  1.1180e-02  0:00:54 1970
    31  4.2705e-02  3.1279e-02  1.5424e-02  2.1813e+00  4.2738e-02  1.1791e-02  1.0699e-02  0:00:43 1969
    32  3.9679e-02  2.8551e-02  1.5290e-02  1.9412e+00  3.9668e-02  1.1263e-02  1.0245e-02  0:00:34 1968
    33  3.6335e-02  2.5723e-02  1.4963e-02  1.7529e+00  3.6292e-02  1.0765e-02  9.8149e-03  0:00:28 1967

  iter  continuity  x-velocity  y-velocity  z-velocity      energy           k       omega     time/iter
    34  3.2720e-02  2.2801e-02  1.4514e-02  1.6804e+00  3.2656e-02  1.0309e-02  9.4065e-03  0:00:22 1966
    35  2.8898e-02  1.9881e-02  1.3971e-02  1.7912e+00  2.8824e-02  9.8851e-03  9.0187e-03  0:00:18 1965
    36  2.4945e-02  1.7109e-02  1.3349e-02  2.0824e+00  2.4870e-02  9.4839e-03  8.6473e-03  0:00:14 1964
    37  2.0943e-02  1.4714e-02  1.2654e-02  2.5051e+00  2.0872e-02  9.1069e-03  8.2946e-03  0:00:11 1963
    38  1.6979e-02  1.2976e-02  1.1893e-02  2.9925e+00  1.6916e-02  8.7495e-03  7.9567e-03  0:00:09 1962
    39  1.3177e-02  1.2147e-02  1.1084e-02  3.5135e+00  1.3116e-02  8.4061e-03  7.6354e-03  0:06:39 1961
    40  9.7212e-03  1.2329e-02  1.0254e-02  4.0306e+00  9.6460e-03  8.0827e-03  7.3261e-03  0:05:19 1960
    41  6.9982e-03  1.3375e-02  9.4243e-03  4.5033e+00  6.8697e-03  7.7815e-03  7.0331e-03  0:04:15 1959
    42  5.8014e-03  1.4991e-02  8.6226e-03  4.9115e+00  5.5752e-03  7.5004e-03  6.7613e-03  0:03:24 1958
    43  6.6251e-03  1.6843e-02  7.8695e-03  5.2522e+00  6.3358e-03  7.2396e-03  6.4897e-03  0:02:43 1957
    44  8.6462e-03  1.8783e-02  7.1790e-03  5.4985e+00  8.3400e-03  6.9867e-03  6.2274e-03  0:02:11 1956

  iter  continuity  x-velocity  y-velocity  z-velocity      energy           k       omega     time/iter
    45  1.1001e-02  2.0692e-02  6.5611e-03  5.6427e+00  1.0687e-02  6.7343e-03  5.9723e-03  0:01:44 1955
    46  1.3326e-02  2.2449e-02  6.0536e-03  5.6760e+00  1.3006e-02  6.4886e-03  5.7291e-03  0:01:23 1954
    47  1.5482e-02  2.4012e-02  5.6599e-03  5.5886e+00  1.5158e-02  6.2536e-03  5.4902e-03  0:01:07 1953
    48  1.7402e-02  2.5337e-02  5.3728e-03  5.3586e+00  1.7078e-02  6.0544e-03  5.2550e-03  0:00:53 1952
    49  1.9063e-02  2.6415e-02  5.1991e-03  4.8426e+00  1.8742e-02  5.8303e-03  5.0227e-03  0:00:43 1951
    50  2.0457e-02  2.7254e-02  5.1170e-03  4.2978e+00  2.0142e-02  5.6082e-03  4.7956e-03  0:00:34 1950
    51  2.1581e-02  2.7845e-02  5.1219e-03  4.0643e+00  2.1277e-02  5.3865e-03  4.5755e-03  0:00:27 1949
    52  2.2446e-02  2.8176e-02  5.2059e-03  3.5013e+00  2.2155e-02  5.1739e-03  4.3606e-03  0:00:22 1948
    53  2.3064e-02  2.8266e-02  5.3440e-03  2.9218e+00  2.2789e-02  4.9650e-03  4.1539e-03  0:00:17 1947
    54  2.3448e-02  2.8120e-02  5.5054e-03  2.3671e+00  2.3190e-02  4.7549e-03  3.9554e-03  0:00:14 1946
    55  2.3611e-02  2.7744e-02  5.6723e-03  1.9428e+00  2.3372e-02  4.5558e-03  3.7701e-03  0:00:11 1945

  iter  continuity  x-velocity  y-velocity  z-velocity      energy           k       omega     time/iter
    56  2.3573e-02  2.7169e-02  5.8258e-03  1.7751e+00  2.3352e-02  4.3669e-03  3.6043e-03  0:00:09 1944
    57  2.3350e-02  2.6414e-02  5.9581e-03  1.9345e+00  2.3149e-02  4.2082e-03  3.4580e-03  0:06:36 1943
    58  2.2957e-02  2.5495e-02  6.0625e-03  2.3744e+00  2.2775e-02  4.1285e-03  3.3510e-03  0:05:16 1942
    59  2.2410e-02  2.4427e-02  6.1319e-03  2.9688e+00  2.2246e-02  4.0653e-03  3.2586e-03  0:04:13 1941
    60  2.1724e-02  2.3229e-02  6.1658e-03  3.6133e+00  2.1577e-02  3.9999e-03  3.1745e-03  0:03:22 1940
    61  2.0916e-02  2.1930e-02  6.1625e-03  4.2368e+00  2.0785e-02  3.9496e-03  3.0937e-03  0:02:42 1939
    62  2.0005e-02  2.0558e-02  6.1236e-03  4.8060e+00  1.9887e-02  3.9026e-03  3.0185e-03  0:02:09 1938
    63  1.9005e-02  1.9129e-02  6.0574e-03  5.3006e+00  1.8900e-02  3.8612e-03  2.9523e-03  0:01:43 1937
    64  1.7935e-02  1.7691e-02  5.9549e-03  5.7039e+00  1.7840e-02  3.8217e-03  2.8931e-03  0:01:23 1936
    65  1.6803e-02  1.6252e-02  5.8215e-03  6.0002e+00  1.6717e-02  3.7862e-03  2.8334e-03  0:01:06 1935
    66  1.5621e-02  1.4820e-02  5.6519e-03  6.2031e+00  1.5542e-02  3.7451e-03  2.7749e-03  0:00:53 1934

  iter  continuity  x-velocity  y-velocity  z-velocity      energy           k       omega     time/iter
    67  1.4395e-02  1.3404e-02  5.4674e-03  6.3081e+00  1.4322e-02  3.6983e-03  2.7180e-03  0:00:42 1933
    68  1.3131e-02  1.2026e-02  5.2662e-03  6.3041e+00  1.3062e-02  3.6430e-03  2.6579e-03  0:00:34 1932
    69  1.1833e-02  1.0716e-02  5.0491e-03  6.1917e+00  1.1768e-02  3.5813e-03  2.5971e-03  0:00:27 1931
    70  1.0502e-02  9.4871e-03  4.8189e-03  5.9003e+00  1.0438e-02  3.5148e-03  2.5340e-03  0:00:22 1930
    71  9.1300e-03  8.3784e-03  4.5831e-03  5.6243e+00  9.0666e-03  3.4421e-03  2.4683e-03  0:00:17 1929
    72  7.7261e-03  7.4798e-03  4.3138e-03  5.2773e+00  7.6623e-03  3.3664e-03  2.4169e-03  0:00:14 1928
    73  6.3189e-03  6.8851e-03  4.0079e-03  4.8930e+00  6.2538e-03  3.2845e-03  2.3568e-03  0:00:11 1927
    74  4.9562e-03  6.6517e-03  3.6908e-03  4.3949e+00  4.8898e-03  3.1933e-03  2.2929e-03  0:00:09 1926
    75  3.8316e-03  6.8037e-03  3.3705e-03  3.8389e+00  3.7687e-03  3.0991e-03  2.2294e-03  0:00:07 1925
    76  3.2900e-03  7.2695e-03  3.0702e-03  3.2596e+00  3.2459e-03  2.9975e-03  2.1665e-03  0:06:30 1924
    77  3.6663e-03  7.9691e-03  2.7991e-03  2.7154e+00  3.6551e-03  2.8962e-03  2.1063e-03  0:05:12 1923

  iter  continuity  x-velocity  y-velocity  z-velocity      energy           k       omega     time/iter
    78  4.8065e-03  8.8237e-03  2.5329e-03  2.2930e+00  4.8212e-03  2.7946e-03  2.0455e-03  0:04:10 1922
    79  6.5015e-03  9.7029e-03  2.2846e-03  2.1109e+00  6.5321e-03  2.6792e-03  1.9669e-03  0:03:20 1921
    80  8.4884e-03  1.0579e-02  2.1132e-03  2.2974e+00  8.5283e-03  2.5633e-03  1.8941e-03  0:02:40 1920
    81  1.0594e-02  1.1416e-02  2.0819e-03  2.7418e+00  1.0639e-02  2.4599e-03  1.8235e-03  0:02:08 1919
    82  1.2646e-02  1.2213e-02  2.2036e-03  3.3136e+00  1.2694e-02  2.3530e-03  1.7533e-03  0:01:42 1918
    83  1.4564e-02  1.2951e-02  2.4330e-03  3.9325e+00  1.4612e-02  2.2579e-03  1.6904e-03  0:01:22 1917
    84  1.6326e-02  1.3607e-02  2.7230e-03  4.5587e+00  1.6373e-02  2.1774e-03  1.6366e-03  0:01:05 1916
    85  1.7909e-02  1.4162e-02  3.0455e-03  5.1524e+00  1.7953e-02  2.1496e-03  1.6073e-03  0:00:52 1915
    86  1.9288e-02  1.4605e-02  3.3810e-03  5.6979e+00  1.9328e-02  2.1221e-03  1.5891e-03  0:00:42 1914
    87  2.0444e-02  1.4931e-02  3.7167e-03  6.1853e+00  2.0479e-02  2.0902e-03  1.5726e-03  0:00:33 1913
    88  2.1366e-02  1.5134e-02  4.0437e-03  6.6003e+00  2.1395e-02  2.0633e-03  1.5541e-03  0:00:27 1912

  iter  continuity  x-velocity  y-velocity  z-velocity      energy           k       omega     time/iter
    89  2.2048e-02  1.5215e-02  4.3517e-03  6.9333e+00  2.2070e-02  2.0518e-03  1.5339e-03  0:00:21 1911
    90  2.2488e-02  1.5178e-02  4.6322e-03  7.1772e+00  2.2503e-02  2.0442e-03  1.5119e-03  0:00:17 1910
    91  2.2691e-02  1.5024e-02  4.8780e-03  7.3301e+00  2.2698e-02  2.0381e-03  1.4875e-03  0:00:14 1909
    92  2.2663e-02  1.4759e-02  5.0841e-03  7.3858e+00  2.2663e-02  2.0288e-03  1.4647e-03  0:00:11 1908
    93  2.2415e-02  1.4392e-02  5.2459e-03  7.3361e+00  2.2408e-02  2.0192e-03  1.4390e-03  0:00:09 1907
    94  2.1958e-02  1.3935e-02  5.3602e-03  7.1228e+00  2.1944e-02  1.9983e-03  1.4121e-03  0:06:28 1906
    95  2.1304e-02  1.3386e-02  5.4298e-03  6.5886e+00  2.1284e-02  1.9803e-03  1.3871e-03  0:05:10 1905
    96  2.0467e-02  1.2763e-02  5.4521e-03  6.3227e+00  2.0442e-02  1.9602e-03  1.3579e-03  0:04:08 1904
    97  1.9461e-02  1.2079e-02  5.4290e-03  6.1366e+00  1.9433e-02  1.9409e-03  1.3308e-03  0:03:18 1903
    98  1.8302e-02  1.1351e-02  5.3623e-03  5.6439e+00  1.8272e-02  1.9299e-03  1.3114e-03  0:02:39 1902
    99  1.7006e-02  1.0597e-02  5.2533e-03  5.0620e+00  1.6974e-02  1.9204e-03  1.2991e-03  0:02:07 1901

  iter  continuity  x-velocity  y-velocity  z-velocity      energy           k       omega     time/iter
   100  1.5587e-02  9.8378e-03  5.1055e-03  4.4384e+00  1.5555e-02  1.9075e-03  1.2864e-03  0:01:41 1900
   101  1.4061e-02  9.0992e-03  4.9233e-03  3.7929e+00  1.4031e-02  1.8923e-03  1.2706e-03  0:01:21 1899
   102  1.2443e-02  8.4089e-03  4.7116e-03  3.1576e+00  1.2415e-02  1.8728e-03  1.2635e-03  0:01:05 1898
   103  1.0753e-02  7.8008e-03  4.4726e-03  2.5642e+00  1.0727e-02  1.8505e-03  1.2585e-03  0:00:52 1897
   104  9.0187e-03  7.3124e-03  4.2096e-03  2.0817e+00  8.9959e-03  1.8271e-03  1.2379e-03  0:00:41 1896
   105  7.2738e-03  6.9773e-03  3.9263e-03  1.8178e+00  7.2536e-03  1.8008e-03  1.2239e-03  0:00:33 1895
   106  5.5714e-03  6.8193e-03  3.6279e-03  1.8553e+00  5.5524e-03  1.7724e-03  1.2090e-03  0:00:27 1894
   107  4.0188e-03  6.8416e-03  3.3211e-03  2.1574e+00  3.9975e-03  1.7444e-03  1.1835e-03  0:00:21 1893
   108  2.8867e-03  7.0244e-03  3.0118e-03  2.6046e+00  2.8564e-03  1.7139e-03  1.1622e-03  0:00:17 1892
   109  2.7184e-03  7.3404e-03  2.7114e-03  3.1129e+00  2.6773e-03  1.6807e-03  1.1382e-03  0:00:14 1891
   110  3.5820e-03  7.7471e-03  2.4312e-03  3.6102e+00  3.5386e-03  1.6334e-03  1.1141e-03  0:00:11 1890

  iter  continuity  x-velocity  y-velocity  z-velocity      energy           k       omega     time/iter
   111  4.8908e-03  8.2027e-03  2.1848e-03  4.0728e+00  4.8472e-03  1.5745e-03  1.0847e-03  0:00:09 1889
   112  6.3104e-03  8.6731e-03  1.9915e-03  4.4502e+00  6.2659e-03  1.5259e-03  1.0479e-03  0:00:07 1888
   113  7.7025e-03  9.1303e-03  1.8657e-03  4.7789e+00  7.6568e-03  1.4804e-03  1.0151e-03  0:06:23 1887
   114  9.0151e-03  9.5527e-03  1.8175e-03  5.0474e+00  8.9684e-03  1.4367e-03  9.8538e-04  0:05:06 1886
   115  1.0222e-02  9.9260e-03  1.8436e-03  5.2564e+00  1.0175e-02  1.3948e-03  9.5982e-04  0:04:05 1885
   116  1.1307e-02  1.0238e-02  1.9316e-03  5.4045e+00  1.1260e-02  1.3566e-03  9.3712e-04  0:03:16 1884
   117  1.2259e-02  1.0477e-02  2.0685e-03  5.4892e+00  1.2213e-02  1.3407e-03  9.2378e-04  0:02:37 1883
   118  1.3069e-02  1.0637e-02  2.2301e-03  5.4993e+00  1.3025e-02  1.3315e-03  9.1870e-04  0:02:05 1882
   119  1.3726e-02  1.0716e-02  2.4016e-03  5.4168e+00  1.3685e-02  1.3228e-03  9.1411e-04  0:01:40 1881
   120  1.4229e-02  1.0713e-02  2.5721e-03  5.1951e+00  1.4190e-02  1.3148e-03  9.1202e-04  0:01:20 1880
   121  1.4576e-02  1.0628e-02  2.7315e-03  5.0278e+00  1.4540e-02  1.3141e-03  9.1277e-04  0:01:04 1879

  iter  continuity  x-velocity  y-velocity  z-velocity      energy           k       omega     time/iter
   122  1.4769e-02  1.0459e-02  2.8730e-03  4.8829e+00  1.4737e-02  1.3150e-03  9.0396e-04  0:00:51 1878
   123  1.4811e-02  1.0211e-02  2.9970e-03  4.7146e+00  1.4783e-02  1.3162e-03  8.9648e-04  0:00:41 1877
   124  1.4707e-02  9.8887e-03  3.0966e-03  4.4564e+00  1.4683e-02  1.3181e-03  8.9188e-04  0:00:33 1876
   125  1.4463e-02  9.4976e-03  3.1699e-03  4.1447e+00  1.4443e-02  1.3200e-03  8.8983e-04  0:00:26 1875
   126  1.4084e-02  9.0413e-03  3.2160e-03  3.7982e+00  1.4067e-02  1.3203e-03  8.8930e-04  0:00:21 1874
   127  1.3578e-02  8.5272e-03  3.2366e-03  3.4281e+00  1.3564e-02  1.3187e-03  8.8869e-04  0:00:17 1873
   128  1.2953e-02  7.9634e-03  3.2314e-03  3.0440e+00  1.2942e-02  1.3163e-03  8.8385e-04  0:00:13 1872
   129  1.2218e-02  7.3584e-03  3.2003e-03  2.6513e+00  1.2210e-02  1.3131e-03  8.7107e-04  0:00:11 1871
   130  1.1385e-02  6.7224e-03  3.1446e-03  2.2543e+00  1.1379e-02  1.3082e-03  8.5610e-04  0:00:09 1870
   131  1.0465e-02  6.0682e-03  3.0653e-03  1.8626e+00  1.0460e-02  1.3018e-03  8.4403e-04  0:06:21 1869
   132  9.4694e-03  5.4088e-03  2.9644e-03  1.4926e+00  9.4655e-03  1.2938e-03  8.3055e-04  0:05:04 1868

  iter  continuity  x-velocity  y-velocity  z-velocity      energy           k       omega     time/iter
   133  8.4128e-03  4.7652e-03  2.8431e-03  1.1473e+00  8.4092e-03  1.2833e-03  8.1792e-04  0:04:03 1867
   134  7.3102e-03  4.1553e-03  2.7034e-03  8.5040e-01  7.3061e-03  1.2705e-03  8.0041e-04  0:03:15 1866
   135  6.1758e-03  3.6124e-03  2.5487e-03  6.6892e-01  6.1704e-03  1.2556e-03  7.9195e-04  0:02:36 1865
   136  5.0333e-03  3.1740e-03  2.3813e-03  6.8089e-01  5.0256e-03  1.2389e-03  7.9338e-04  0:02:04 1864
   137  3.9160e-03  2.8859e-03  2.2045e-03  8.4792e-01  3.9046e-03  1.2212e-03  7.9521e-04  0:01:39 1863
   138  2.8844e-03  2.7828e-03  2.0220e-03  1.0823e+00  2.8672e-03  1.2028e-03  7.9837e-04  0:01:20 1862
   139  2.0790e-03  2.8653e-03  1.8382e-03  1.3400e+00  2.0534e-03  1.2014e-03  8.0707e-04  0:01:04 1861
   140  1.8028e-03  3.0951e-03  1.6577e-03  1.5941e+00  1.7720e-03  1.1998e-03  7.9326e-04  0:00:51 1860
   141  2.2039e-03  3.4192e-03  1.4880e-03  1.8399e+00  2.1787e-03  1.1694e-03  7.6198e-04  0:00:41 1859
   142  2.9741e-03  3.7894e-03  1.3367e-03  2.0800e+00  2.9560e-03  1.1366e-03  7.4706e-04  0:00:33 1858
   143  3.8504e-03  4.1705e-03  1.2135e-03  2.2951e+00  3.8371e-03  1.1193e-03  7.3468e-04  0:00:26 1857

  iter  continuity  x-velocity  y-velocity  z-velocity      energy           k       omega     time/iter
   144  4.7265e-03  4.5393e-03  1.1286e-03  2.4782e+00  4.7163e-03  1.1034e-03  7.2422e-04  0:00:21 1856
   145  5.5623e-03  4.8796e-03  1.0907e-03  2.6323e+00  5.5541e-03  1.0887e-03  7.1424e-04  0:00:17 1855
   146  6.3300e-03  5.1816e-03  1.1022e-03  2.7581e+00  6.3230e-03  1.0723e-03  7.0329e-04  0:00:13 1854
   147  7.0123e-03  5.4399e-03  1.1559e-03  2.8608e+00  7.0061e-03  1.0545e-03  6.9158e-04  0:00:11 1853
   148  7.5997e-03  5.6505e-03  1.2399e-03  2.9418e+00  7.5938e-03  1.0362e-03  6.7882e-04  0:00:08 1852
   149  8.0908e-03  5.8136e-03  1.3432e-03  3.0033e+00  8.0849e-03  1.0193e-03  6.6534e-04  0:06:17 1851
   150  8.4827e-03  5.9276e-03  1.4549e-03  3.0425e+00  8.4767e-03  1.0076e-03  6.5377e-04  0:05:01 1850
   151  8.7733e-03  5.9914e-03  1.5679e-03  3.0621e+00  8.7670e-03  9.9737e-04  6.4377e-04  0:04:01 1849
   152  8.9621e-03  6.0063e-03  1.6764e-03  3.0544e+00  8.9554e-03  9.8594e-04  6.3581e-04  0:03:13 1848
   153  9.0502e-03  5.9754e-03  1.7745e-03  3.0091e+00  9.0430e-03  9.7592e-04  6.3164e-04  0:02:34 1847
   154  9.0396e-03  5.8997e-03  1.8624e-03  2.9507e+00  9.0320e-03  9.6771e-04  6.2502e-04  0:02:03 1846

  iter  continuity  x-velocity  y-velocity  z-velocity      energy           k       omega     time/iter
   155  8.9344e-03  5.7845e-03  1.9355e-03  2.8533e+00  8.9265e-03  9.6101e-04  6.1946e-04  0:01:39 1845
   156  8.7396e-03  5.6342e-03  1.9914e-03  2.8049e+00  8.7315e-03  9.5439e-04  6.1384e-04  0:01:19 1844
   157  8.4614e-03  5.4538e-03  2.0297e-03  2.7302e+00  8.4531e-03  9.4787e-04  6.0611e-04  0:01:03 1843
   158  8.1066e-03  5.2485e-03  2.0498e-03  2.6192e+00  8.0983e-03  9.4021e-04  6.0077e-04  0:00:50 1842
   159  7.6826e-03  5.0241e-03  2.0519e-03  2.4814e+00  7.6745e-03  9.3134e-04  5.9751e-04  0:00:40 1841
   160  7.1975e-03  4.7875e-03  2.0359e-03  2.3235e+00  7.1898e-03  9.2197e-04  5.9034e-04  0:00:32 1840
   161  6.6594e-03  4.5451e-03  2.0033e-03  2.1587e+00  6.6522e-03  9.1209e-04  5.7884e-04  0:00:26 1839
   162  6.0769e-03  4.3051e-03  1.9541e-03  1.9721e+00  6.0703e-03  9.0729e-04  5.6960e-04  0:00:21 1838
   163  5.4588e-03  4.0751e-03  1.8895e-03  1.7677e+00  5.4528e-03  9.0401e-04  5.6340e-04  0:00:16 1837
   164  4.8148e-03  3.8632e-03  1.8108e-03  1.5597e+00  4.8095e-03  8.9972e-04  5.5180e-04  0:00:13 1836
   165  4.1533e-03  3.6769e-03  1.7195e-03  1.3539e+00  4.1486e-03  8.9490e-04  5.4434e-04  0:00:11 1835

  iter  continuity  x-velocity  y-velocity  z-velocity      energy           k       omega     time/iter
   166  3.4910e-03  3.5243e-03  1.6169e-03  1.1503e+00  3.4867e-03  8.8996e-04  5.3581e-04  0:00:08 1834
   167  2.8434e-03  3.4108e-03  1.5055e-03  9.6115e-01  2.8391e-03  8.8450e-04  5.3494e-04  0:06:13 1833
   168  2.2285e-03  3.3405e-03  1.3880e-03  7.8972e-01  2.2235e-03  8.7883e-04  5.3947e-04  0:04:58 1832
   169  1.6862e-03  3.3133e-03  1.2667e-03  6.5850e-01  1.6790e-03  8.7229e-04  5.4432e-04  0:03:59 1831
   170  1.2991e-03  3.3254e-03  1.1443e-03  5.9605e-01  1.2879e-03  8.6517e-04  5.3379e-04  0:03:11 1830
   171  1.1985e-03  3.3710e-03  1.0241e-03  6.1536e-01  1.1829e-03  8.5642e-04  5.3173e-04  0:02:33 1829
   172  1.4125e-03  3.4421e-03  9.1011e-04  7.0032e-01  1.3956e-03  8.4615e-04  5.3032e-04  0:02:02 1828
   173  1.8023e-03  3.5307e-03  8.0721e-04  8.2395e-01  1.7856e-03  8.3500e-04  5.2749e-04  0:01:38 1827
   174  2.2504e-03  3.6284e-03  7.2126e-04  9.6648e-01  2.2342e-03  8.2341e-04  5.1840e-04  0:01:18 1826
   175  2.7026e-03  3.7281e-03  6.5864e-04  1.1132e+00  2.6867e-03  8.1149e-04  5.0893e-04  0:01:02 1825
   176  3.1346e-03  3.8233e-03  6.2472e-04  1.2555e+00  3.1190e-03  7.9826e-04  5.0007e-04  0:00:50 1824

  iter  continuity  x-velocity  y-velocity  z-velocity      energy           k       omega     time/iter
   177  3.5369e-03  3.9089e-03  6.2176e-04  1.3815e+00  3.5215e-03  7.8113e-04  4.9673e-04  0:00:40 1823
   178  3.8985e-03  3.9799e-03  6.4653e-04  1.4879e+00  3.8834e-03  7.5702e-04  4.7990e-04  0:00:32 1822
   179  4.2151e-03  4.0331e-03  6.9155e-04  1.5824e+00  4.2004e-03  7.3446e-04  4.6449e-04  0:00:25 1821
   180  4.4846e-03  4.0660e-03  7.4869e-04  1.6720e+00  4.4703e-03  7.1404e-04  4.5230e-04  0:00:20 1820
   181  4.7061e-03  4.0773e-03  8.1125e-04  1.7414e+00  4.6924e-03  6.9686e-04  4.4169e-04  0:00:16 1819
   182  4.8795e-03  4.0657e-03  8.7425e-04  1.8031e+00  4.8663e-03  6.8271e-04  4.3278e-04  0:00:13 1818
   183  5.0047e-03  4.0304e-03  9.3437e-04  1.8632e+00  4.9922e-03  6.7137e-04  4.2403e-04  0:00:10 1817
   184  5.0823e-03  3.9715e-03  9.8916e-04  1.8939e+00  5.0704e-03  6.6257e-04  4.1684e-04  0:06:12 1816
   185  5.1129e-03  3.8891e-03  1.0370e-03  1.9018e+00  5.1019e-03  6.5515e-04  4.1227e-04  0:04:57 1815
   186  5.0979e-03  3.7836e-03  1.0767e-03  1.8996e+00  5.0876e-03  6.4837e-04  4.0785e-04  0:03:58 1814
   187  5.0388e-03  3.6572e-03  1.1080e-03  1.8930e+00  5.0293e-03  6.4280e-04  4.0134e-04  0:03:10 1813

  iter  continuity  x-velocity  y-velocity  z-velocity      energy           k       omega     time/iter
   188  4.9374e-03  3.5110e-03  1.1302e-03  1.8673e+00  4.9287e-03  6.3771e-04  3.9555e-04  0:02:32 1812
   189  4.7957e-03  3.3463e-03  1.1431e-03  1.8263e+00  4.7878e-03  6.3195e-04  3.8875e-04  0:02:01 1811
   190  4.6160e-03  3.1658e-03  1.1468e-03  1.7709e+00  4.6089e-03  6.2568e-04  3.8151e-04  0:01:37 1810
   191  4.4010e-03  2.9726e-03  1.1414e-03  1.6986e+00  4.3946e-03  6.1935e-04  3.7775e-04  0:01:18 1809
   192  4.1538e-03  2.7701e-03  1.1272e-03  1.6125e+00  4.1481e-03  6.1236e-04  3.7613e-04  0:01:02 1808
   193  3.8776e-03  2.5621e-03  1.1046e-03  1.5170e+00  3.8727e-03  6.0519e-04  3.7634e-04  0:00:50 1807
   194  3.5761e-03  2.3535e-03  1.0741e-03  1.4134e+00  3.5718e-03  5.9879e-04  3.7991e-04  0:00:40 1806
   195  3.2531e-03  2.1502e-03  1.0363e-03  1.2833e+00  3.2494e-03  5.9271e-04  3.8404e-04  0:00:32 1805
   196  2.9127e-03  1.9588e-03  9.9186e-04  1.1466e+00  2.9096e-03  5.8719e-04  3.8727e-04  0:00:25 1804
   197  2.5590e-03  1.7870e-03  9.4147e-04  1.0037e+00  2.5566e-03  5.8161e-04  3.8139e-04  0:00:20 1803
   198  2.1980e-03  1.6443e-03  8.8596e-04  8.5754e-01  2.1963e-03  5.7495e-04  3.7497e-04  0:00:16 1802

  iter  continuity  x-velocity  y-velocity  z-velocity      energy           k       omega     time/iter
   199  1.8392e-03  1.5403e-03  8.2638e-04  7.1315e-01  1.8383e-03  5.8181e-04  3.8316e-04  0:00:13 1801
   200  1.4894e-03  1.4822e-03  7.6412e-04  5.7723e-01  1.4895e-03  5.8462e-04  3.8551e-04  0:00:10 1800
   201  1.1662e-03  1.4733e-03  7.0033e-04  4.5560e-01  1.1676e-03  5.9071e-04  3.9177e-04  0:00:08 1799
   202  9.0450e-04  1.5109e-03  6.3644e-04  3.7027e-01  9.0766e-04  5.6848e-04  3.7565e-04  0:00:07 1798
   203  7.6837e-04  1.5864e-03  5.7428e-04  3.4433e-01  7.7343e-04  5.4408e-04  3.6291e-04  0:06:05 1797
   204  8.1412e-04  1.6890e-03  5.1615e-04  3.9834e-01  8.1989e-04  5.2839e-04  3.5181e-04  0:04:52 1796
   205  1.0052e-03  1.8080e-03  4.6490e-04  4.8969e-01  1.0105e-03  5.1169e-04  3.4349e-04  0:03:53 1795
   206  1.2647e-03  1.9342e-03  4.2387e-04  5.9144e-01  1.2691e-03  4.9680e-04  3.3650e-04  0:03:06 1794
   207  1.5454e-03  2.0606e-03  3.9637e-04  6.9209e-01  1.5492e-03  4.8370e-04  3.2929e-04  0:02:29 1793
   208  1.8251e-03  2.1817e-03  3.8481e-04  7.8890e-01  1.8282e-03  4.7110e-04  3.2270e-04  0:01:59 1792
   209  2.0921e-03  2.2933e-03  3.8950e-04  8.8060e-01  2.0947e-03  4.6061e-04  3.1698e-04  0:01:35 1791

  iter  continuity  x-velocity  y-velocity  z-velocity      energy           k       omega     time/iter
   210  2.3400e-03  2.3925e-03  4.0837e-04  9.6350e-01  2.3420e-03  4.4983e-04  3.0933e-04  0:01:16 1790
   211  2.5644e-03  2.4772e-03  4.3777e-04  1.0387e+00  2.5659e-03  4.3924e-04  3.0195e-04  0:01:01 1789
   212  2.7623e-03  2.5459e-03  4.7382e-04  1.1054e+00  2.7634e-03  4.3100e-04  2.9708e-04  0:00:49 1788
   213  2.9316e-03  2.5977e-03  5.1312e-04  1.1627e+00  2.9322e-03  4.2412e-04  2.9497e-04  0:00:39 1787
   214  3.0707e-03  2.6323e-03  5.5302e-04  1.2087e+00  3.0708e-03  4.1792e-04  2.9464e-04  0:00:31 1786
   215  3.1787e-03  2.6495e-03  5.9158e-04  1.2420e+00  3.1784e-03  4.1277e-04  2.9247e-04  0:00:25 1785
   216  3.2549e-03  2.6497e-03  6.2738e-04  1.2609e+00  3.2541e-03  4.0847e-04  2.8953e-04  0:00:20 1784
   217  3.2993e-03  2.6335e-03  6.5937e-04  1.2642e+00  3.2981e-03  4.0365e-04  2.8695e-04  0:00:16 1783
   218  3.3121e-03  2.6019e-03  6.8680e-04  1.2528e+00  3.3105e-03  3.9862e-04  2.8512e-04  0:00:13 1782
   219  3.2939e-03  2.5560e-03  7.0911e-04  1.2305e+00  3.2919e-03  3.9384e-04  2.8430e-04  0:00:10 1781
   220  3.2456e-03  2.4972e-03  7.2594e-04  1.1982e+00  3.2432e-03  3.8888e-04  2.8418e-04  0:00:08 1780

  iter  continuity  x-velocity  y-velocity  z-velocity      energy           k       omega     time/iter
   221  3.1685e-03  2.4271e-03  7.3707e-04  1.1555e+00  3.1658e-03  3.8338e-04  2.8025e-04  0:06:02 1779
   222  3.0642e-03  2.3480e-03  7.4228e-04  1.1038e+00  3.0611e-03  3.7747e-04  2.7888e-04  0:04:50 1778
   223  2.9344e-03  2.2617e-03  7.4181e-04  1.0470e+00  2.9309e-03  3.7152e-04  2.7812e-04  0:03:52 1777
   224  2.7811e-03  2.1702e-03  7.3571e-04  9.8678e-01  2.7772e-03  3.6534e-04  2.7730e-04  0:03:05 1776
   225  2.6066e-03  2.0763e-03  7.2401e-04  9.2013e-01  2.6023e-03  3.6052e-04  2.7392e-04  0:02:28 1775
   226  2.4133e-03  1.9828e-03  7.0699e-04  8.4792e-01  2.4086e-03  3.5735e-04  2.7366e-04  0:01:58 1774
   227  2.2040e-03  1.8925e-03  6.8501e-04  7.7065e-01  2.1987e-03  3.5435e-04  2.7274e-04  0:01:35 1773
   228  1.9816e-03  1.8085e-03  6.5844e-04  6.9015e-01  1.9757e-03  3.5136e-04  2.6850e-04  0:01:16 1772
   229  1.7495e-03  1.7336e-03  6.2782e-04  6.0670e-01  1.7429e-03  3.4810e-04  2.6540e-04  0:01:01 1771
   230  1.5116e-03  1.6705e-03  5.9366e-04  5.2262e-01  1.5039e-03  3.4444e-04  2.5840e-04  0:00:48 1770
   231  1.2729e-03  1.6215e-03  5.5662e-04  4.4128e-01  1.2637e-03  3.4032e-04  2.4634e-04  0:00:39 1769

  iter  continuity  x-velocity  y-velocity  z-velocity      energy           k       omega     time/iter
   232  1.0404e-03  1.5879e-03  5.1740e-04  3.6343e-01  1.0290e-03  3.3584e-04  2.3921e-04  0:00:31 1768
   233  8.2600e-04  1.5705e-03  4.7684e-04  2.9619e-01  8.1139e-04  3.3096e-04  2.3424e-04  0:00:25 1767
   234  6.5172e-04  1.5685e-03  4.3591e-04  2.4729e-01  6.3269e-04  3.2615e-04  2.3118e-04  0:06:13 1766
   235  5.5652e-04  1.5805e-03  3.9582e-04  2.2861e-01  5.3350e-04  3.2143e-04  2.2916e-04  0:04:58 1765
   236  5.7616e-04  1.6041e-03  3.5800e-04  2.4331e-01  5.5328e-04  3.1640e-04  2.2599e-04  0:03:58 1764
   237  6.9397e-04  1.6366e-03  3.2422e-04  2.8227e-01  6.7447e-04  3.1125e-04  2.2075e-04  0:03:11 1763
   238  8.6290e-04  1.6748e-03  2.9651e-04  3.3282e-01  8.4679e-04  3.0589e-04  2.1681e-04  0:02:32 1762
   239  1.0505e-03  1.7160e-03  2.7700e-04  3.8776e-01  1.0369e-03  3.0032e-04  2.1336e-04  0:02:02 1761
   240  1.2403e-03  1.7573e-03  2.6741e-04  4.4161e-01  1.2285e-03  2.9445e-04  2.0934e-04  0:01:37 1760
   241  1.4238e-03  1.7963e-03  2.6828e-04  4.9235e-01  1.4133e-03  2.8853e-04  2.0475e-04  0:01:18 1759
   242  1.5959e-03  1.8309e-03  2.7872e-04  5.3645e-01  1.5865e-03  2.8273e-04  1.9832e-04  0:01:02 1758

  iter  continuity  x-velocity  y-velocity  z-velocity      energy           k       omega     time/iter
   243  1.7535e-03  1.8595e-03  2.9665e-04  5.7667e-01  1.7449e-03  2.7781e-04  1.9275e-04  0:00:50 1757
   244  1.8942e-03  1.8806e-03  3.1963e-04  6.1149e-01  1.8863e-03  2.7471e-04  1.9030e-04  0:00:40 1756
   245  2.0162e-03  1.8931e-03  3.4541e-04  6.3970e-01  2.0090e-03  2.7208e-04  1.8939e-04  0:00:32 1755
   246  2.1185e-03  1.8963e-03  3.7218e-04  6.6088e-01  2.1118e-03  2.7008e-04  1.8789e-04  0:00:25 1754
   247  2.1999e-03  1.8897e-03  3.9849e-04  6.7540e-01  2.1938e-03  2.7151e-04  1.8653e-04  0:00:20 1753
   248  2.2599e-03  1.8732e-03  4.2330e-04  6.8284e-01  2.2543e-03  2.6880e-04  1.8593e-04  0:00:16 1752
   249  2.2980e-03  1.8468e-03  4.4574e-04  6.8379e-01  2.2930e-03  2.6678e-04  1.8597e-04  0:00:13 1751
   250  2.3143e-03  1.8108e-03  4.6535e-04  6.7818e-01  2.3097e-03  2.6509e-04  1.8592e-04  0:06:00 1750
   251  2.3087e-03  1.7658e-03  4.8169e-04  6.6574e-01  2.3047e-03  2.6348e-04  1.8536e-04  0:04:48 1749
   252  2.2816e-03  1.7123e-03  4.9428e-04  6.4657e-01  2.2781e-03  2.6189e-04  1.8521e-04  0:03:50 1748
   253  2.2336e-03  1.6518e-03  5.0316e-04  6.2120e-01  2.2306e-03  2.6093e-04  1.8547e-04  0:03:04 1747

  iter  continuity  x-velocity  y-velocity  z-velocity      energy           k       omega     time/iter
   254  2.1655e-03  1.5856e-03  5.0813e-04  5.8971e-01  2.1630e-03  2.6012e-04  1.8682e-04  0:02:27 1746
   255  2.0782e-03  1.5152e-03  5.0913e-04  5.5404e-01  2.0763e-03  2.5928e-04  1.8812e-04  0:01:58 1745
   256  1.9730e-03  1.4424e-03  5.0618e-04  5.1474e-01  1.9717e-03  2.5866e-04  1.9000e-04  0:01:34 1744
   257  1.8512e-03  1.3693e-03  4.9935e-04  4.7230e-01  1.8505e-03  2.5849e-04  1.9009e-04  0:01:15 1743
   258  1.7145e-03  1.2984e-03  4.8879e-04  4.2695e-01  1.7144e-03  2.5899e-04  1.8786e-04  0:01:00 1742
   259  1.5647e-03  1.2323e-03  4.7471e-04  3.7924e-01  1.5652e-03  2.5935e-04  1.8416e-04  0:00:48 1741
   260  1.4040e-03  1.1738e-03  4.5736e-04  3.3186e-01  1.4052e-03  2.6621e-04  1.8053e-04  0:00:38 1740
   261  1.2347e-03  1.1258e-03  4.3706e-04  2.8419e-01  1.2367e-03  2.6354e-04  1.7826e-04  0:00:31 1739
   262  1.0599e-03  1.0905e-03  4.1418e-04  2.3896e-01  1.0628e-03  2.6126e-04  1.7753e-04  0:00:25 1738
   263  8.8352e-04  1.0696e-03  3.8917e-04  1.9674e-01  8.8744e-04  2.5919e-04  1.7428e-04  0:00:20 1737
   264  7.1129e-04  1.0638e-03  3.6257e-04  1.6030e-01  7.1659e-04  2.5692e-04  1.7163e-04  0:00:16 1736

  iter  continuity  x-velocity  y-velocity  z-velocity      energy           k       omega     time/iter
   265  5.5353e-04  1.0725e-03  3.3499e-04  1.3410e-01  5.6061e-04  2.5484e-04  1.7115e-04  0:00:13 1735
   266  4.3086e-04  1.0940e-03  3.0721e-04  1.2446e-01  4.3995e-04  2.5343e-04  1.6961e-04  0:00:10 1734
   267  3.7944e-04  1.1258e-03  2.8018e-04  1.3302e-01  3.8943e-04  2.5169e-04  1.6684e-04  0:05:55 1733
   268  4.2243e-04  1.1650e-03  2.5501e-04  1.5477e-01  4.3086e-04  2.4940e-04  1.6381e-04  0:04:44 1732
   269  5.3207e-04  1.2086e-03  2.3306e-04  1.8325e-01  5.3813e-04  2.4711e-04  1.6044e-04  0:03:47 1731
   270  6.7031e-04  1.2540e-03  2.1580e-04  2.1405e-01  6.7445e-04  2.4458e-04  1.5775e-04  0:03:01 1730
   271  8.1623e-04  1.2988e-03  2.0468e-04  2.4416e-01  8.1897e-04  2.4183e-04  1.5392e-04  0:02:25 1729
   272  9.5988e-04  1.3408e-03  2.0064e-04  2.7209e-01  9.6158e-04  2.3892e-04  1.5035e-04  0:01:56 1728
   273  1.0960e-03  1.3784e-03  2.0372e-04  2.9792e-01  1.0968e-03  2.3591e-04  1.4657e-04  0:01:33 1727
   274  1.2212e-03  1.4104e-03  2.1303e-04  3.2133e-01  1.2215e-03  2.3301e-04  1.4295e-04  0:01:14 1726
   275  1.3336e-03  1.4357e-03  2.2704e-04  3.4195e-01  1.3332e-03  2.3159e-04  1.4153e-04  0:00:59 1725

  iter  continuity  x-velocity  y-velocity  z-velocity      energy           k       omega     time/iter
   276  1.4314e-03  1.4537e-03  2.4406e-04  3.5937e-01  1.4306e-03  2.3027e-04  1.4174e-04  0:00:47 1724
   277  1.5136e-03  1.4640e-03  2.6259e-04  3.7339e-01  1.5124e-03  2.2882e-04  1.4257e-04  0:00:38 1723
   278  1.5794e-03  1.4662e-03  2.8140e-04  3.8406e-01  1.5778e-03  2.2752e-04  1.4105e-04  0:00:30 1722
   279  1.6284e-03  1.4605e-03  2.9955e-04  3.9130e-01  1.6265e-03  2.2602e-04  1.3923e-04  0:00:24 1721
   280  1.6603e-03  1.4470e-03  3.1634e-04  3.9467e-01  1.6581e-03  2.2424e-04  1.3831e-04  0:00:19 1720
   281  1.6751e-03  1.4262e-03  3.3124e-04  3.9431e-01  1.6727e-03  2.2222e-04  1.3808e-04  0:00:15 1719
   282  1.6730e-03  1.3985e-03  3.4384e-04  3.8977e-01  1.6704e-03  2.2003e-04  1.3674e-04  0:00:12 1718
   283  1.6545e-03  1.3646e-03  3.5387e-04  3.8205e-01  1.6517e-03  2.1758e-04  1.3696e-04  0:05:53 1717
   284  1.6202e-03  1.3253e-03  3.6113e-04  3.7162e-01  1.6172e-03  2.1472e-04  1.3736e-04  0:04:42 1716
   285  1.5707e-03  1.2817e-03  3.6550e-04  3.5856e-01  1.5676e-03  2.1147e-04  1.3721e-04  0:03:46 1715
   286  1.5071e-03  1.2349e-03  3.6690e-04  3.4334e-01  1.5039e-03  2.0833e-04  1.3512e-04  0:03:01 1714

  iter  continuity  x-velocity  y-velocity  z-velocity      energy           k       omega     time/iter
   287  1.4304e-03  1.1863e-03  3.6530e-04  3.2607e-01  1.4271e-03  2.0536e-04  1.3258e-04  0:02:24 1713
   288  1.3418e-03  1.1368e-03  3.6092e-04  3.0683e-01  1.3383e-03  2.0246e-04  1.3072e-04  0:01:55 1712
   289  1.2425e-03  1.0881e-03  3.5374e-04  2.8587e-01  1.2390e-03  2.0063e-04  1.2977e-04  0:01:32 1711
   290  1.1342e-03  1.0418e-03  3.4390e-04  2.6302e-01  1.1305e-03  1.9907e-04  1.3040e-04  0:01:14 1710
   291  1.0182e-03  9.9951e-04  3.3159e-04  2.3911e-01  1.0144e-03  1.9805e-04  1.3018e-04  0:00:59 1709
   292  8.9654e-04  9.6265e-04  3.1707e-04  2.1434e-01  8.9248e-04  1.9716e-04  1.2836e-04  0:00:47 1708
   293  7.7109e-04  9.3255e-04  3.0060e-04  1.8917e-01  7.6675e-04  1.9611e-04  1.2564e-04  0:00:38 1707
   294  6.4444e-04  9.1024e-04  2.8252e-04  1.6402e-01  6.3967e-04  1.9481e-04  1.2198e-04  0:00:30 1706
   295  5.2015e-04  8.9629e-04  2.6321e-04  1.3946e-01  5.1474e-04  1.9338e-04  1.1888e-04  0:00:24 1705
   296  4.0423e-04  8.9071e-04  2.4310e-04  1.1665e-01  3.9782e-04  1.9209e-04  1.1558e-04  0:00:19 1704
   297  3.0871e-04  8.9300e-04  2.2271e-04  9.7803e-02  3.0093e-04  1.9059e-04  1.1433e-04  0:00:15 1703

  iter  continuity  x-velocity  y-velocity  z-velocity      energy           k       omega     time/iter
   298  2.5717e-04  9.0216e-04  2.0265e-04  8.4866e-02  2.4845e-04  1.8908e-04  1.1342e-04  0:00:12 1702
   299  2.7256e-04  9.1689e-04  1.8368e-04  8.1605e-02  2.6485e-04  1.8757e-04  1.1313e-04  0:05:50 1701
   300  3.4176e-04  9.3568e-04  1.6672e-04  8.7447e-02  3.3594e-04  1.8591e-04  1.1237e-04  0:04:40 1700
   301  4.3535e-04  9.5697e-04  1.5281e-04  9.9688e-02  4.3096e-04  1.8399e-04  1.1042e-04  0:03:44 1699
   302  5.3607e-04  9.7926e-04  1.4302e-04  1.1551e-01  5.3261e-04  1.8190e-04  1.0820e-04  0:02:59 1698
   303  6.3601e-04  1.0012e-03  1.3821e-04  1.3266e-01  6.3314e-04  1.7966e-04  1.0597e-04  0:02:23 1697
   304  7.3121e-04  1.0216e-03  1.3862e-04  1.4968e-01  7.2875e-04  1.7738e-04  1.0413e-04  0:01:54 1696
   305  8.1937e-04  1.0395e-03  1.4380e-04  1.6573e-01  8.1719e-04  1.7494e-04  1.0152e-04  0:01:31 1695
   306  8.9899e-04  1.0541e-03  1.5269e-04  1.8028e-01  8.9703e-04  1.7252e-04  9.8465e-05  0:01:13 1694
   307  9.6904e-04  1.0648e-03  1.6405e-04  1.9296e-01  9.6724e-04  1.7120e-04  9.6583e-05  0:00:58 1693
   308  1.0287e-03  1.0711e-03  1.7677e-04  2.0362e-01  1.0271e-03  1.7010e-04  9.5066e-05  0:00:47 1692

  iter  continuity  x-velocity  y-velocity  z-velocity      energy           k       omega     time/iter
   309  1.0776e-03  1.0727e-03  1.8992e-04  2.1225e-01  1.0760e-03  1.6916e-04  9.4462e-05  0:00:37 1691
   310  1.1152e-03  1.0696e-03  2.0277e-04  2.1852e-01  1.1138e-03  1.6851e-04  9.4748e-05  0:00:30 1690
   311  1.1414e-03  1.0618e-03  2.1479e-04  2.2250e-01  1.1401e-03  1.6812e-04  9.5702e-05  0:00:24 1689
   312  1.1561e-03  1.0493e-03  2.2560e-04  2.2418e-01  1.1549e-03  1.6765e-04  9.6718e-05  0:00:19 1688
   313  1.1594e-03  1.0326e-03  2.3489e-04  2.2386e-01  1.1583e-03  1.6714e-04  9.7302e-05  0:00:15 1687
   314  1.1515e-03  1.0117e-03  2.4237e-04  2.2152e-01  1.1504e-03  1.6656e-04  9.8090e-05  0:00:12 1686
   315  1.1327e-03  9.8747e-04  2.4804e-04  2.1717e-01  1.1317e-03  1.6574e-04  9.9008e-05  0:00:10 1685
   316  1.1034e-03  9.6047e-04  2.5176e-04  2.1087e-01  1.1026e-03  1.6475e-04  9.9806e-05  0:00:08 1684
   317  1.0643e-03  9.3135e-04  2.5348e-04  2.0263e-01  1.0636e-03  1.6365e-04  9.9232e-05  0:05:43 1683
   318  1.0159e-03  9.0088e-04  2.5318e-04  1.9246e-01  1.0152e-03  1.6248e-04  9.8862e-05  0:04:34 1682
   319  9.5893e-04  8.6993e-04  2.5090e-04  1.8070e-01  9.5837e-04  1.6132e-04  9.9100e-05  0:03:39 1681

  iter  continuity  x-velocity  y-velocity  z-velocity      energy           k       omega     time/iter
   320  8.9426e-04  8.3942e-04  2.4670e-04  1.6758e-01  8.9377e-04  1.6015e-04  9.8784e-05  0:02:55 1680
   321  8.2277e-04  8.1033e-04  2.4067e-04  1.5327e-01  8.2235e-04  1.5913e-04  9.8116e-05  0:02:20 1679
   322  7.4546e-04  7.8362e-04  2.3292e-04  1.3803e-01  7.4510e-04  1.5839e-04  9.6714e-05  0:01:52 1678
   323  6.6344e-04  7.6019e-04  2.2360e-04  1.2214e-01  6.6311e-04  1.5791e-04  9.5415e-05  0:01:30 1677
   324  5.7795e-04  7.4084e-04  2.1289e-04  1.0587e-01  5.7763e-04  1.5730e-04  9.3771e-05  0:01:12 1676
   325  4.9050e-04  7.2619e-04  2.0098e-04  8.9988e-02  4.9014e-04  1.5650e-04  9.1685e-05  0:00:57 1675
   326  4.0303e-04  7.1659e-04  1.8812e-04  7.5053e-02  4.0255e-04  1.5540e-04  9.0083e-05  0:00:46 1674
   327  3.1853e-04  7.1210e-04  1.7457e-04  6.2055e-02  3.1782e-04  1.5407e-04  8.7313e-05  0:00:37 1673
   328  2.4256e-04  7.1248e-04  1.6066e-04  5.3036e-02  2.4140e-04  1.5270e-04  8.4681e-05  0:00:29 1672
   329  1.8697e-04  7.1723e-04  1.4678e-04  5.0098e-02  1.8507e-04  1.5127e-04  8.2825e-05  0:00:23 1671
   330  1.7171e-04  7.2563e-04  1.3338e-04  5.3171e-02  1.6913e-04  1.4954e-04  8.1386e-05  0:00:19 1670

  iter  continuity  x-velocity  y-velocity  z-velocity      energy           k       omega     time/iter
   331  2.0343e-04  7.3685e-04  1.2102e-04  6.1113e-02  2.0076e-04  1.4758e-04  7.9804e-05  0:00:15 1669
   332  2.6267e-04  7.4995e-04  1.1039e-04  7.1919e-02  2.6020e-04  1.4545e-04  7.8300e-05  0:00:12 1668
   333  3.3185e-04  7.6403e-04  1.0221e-04  8.3771e-02  3.2955e-04  1.4336e-04  7.6744e-05  0:00:10 1667
   334  4.0267e-04  7.7824e-04  9.7169e-05  9.5712e-02  4.0048e-04  1.4116e-04  7.4998e-05  0:00:08 1666
   335  4.7130e-04  7.9177e-04  9.5678e-05  1.0704e-01  4.6920e-04  1.3901e-04  7.3226e-05  0:05:39 1665
   336  5.3571e-04  8.0400e-04  9.7662e-05  1.1751e-01  5.3365e-04  1.3673e-04  7.1526e-05  0:04:31 1664
   337  5.9461e-04  8.1432e-04  1.0259e-04  1.2696e-01  5.9259e-04  1.3449e-04  6.9914e-05  0:03:37 1663
   338  6.4716e-04  8.2229e-04  1.0967e-04  1.3514e-01  6.4517e-04  1.3286e-04  6.8846e-05  0:02:53 1662
   339  6.9273e-04  8.2758e-04  1.1809e-04  1.4192e-01  6.9077e-04  1.3197e-04  6.8413e-05  0:02:19 1661
   340  7.3088e-04  8.2999e-04  1.2712e-04  1.4726e-01  7.2894e-04  1.3123e-04  6.8184e-05  0:01:51 1660
   341  7.6131e-04  8.2938e-04  1.3620e-04  1.5109e-01  7.5940e-04  1.3071e-04  6.8056e-05  0:01:29 1659

  iter  continuity  x-velocity  y-velocity  z-velocity      energy           k       omega     time/iter
   342  7.8381e-04  8.2574e-04  1.4491e-04  1.5329e-01  7.8194e-04  1.3051e-04  6.7920e-05  0:01:11 1658
   343  7.9831e-04  8.1911e-04  1.5292e-04  1.5407e-01  7.9648e-04  1.3019e-04  6.7477e-05  0:00:57 1657
   344  8.0481e-04  8.0963e-04  1.5999e-04  1.5341e-01  8.0302e-04  1.2967e-04  6.7457e-05  0:00:45 1656
   345  8.0341e-04  7.9754e-04  1.6594e-04  1.5147e-01  8.0168e-04  1.2906e-04  6.7678e-05  0:00:36 1655
   346  7.9431e-04  7.8313e-04  1.7066e-04  1.4829e-01  7.9264e-04  1.2839e-04  6.7480e-05  0:00:29 1654
   347  7.7775e-04  7.6677e-04  1.7405e-04  1.4389e-01  7.7615e-04  1.2768e-04  6.7225e-05  0:00:23 1653
   348  7.5408e-04  7.4888e-04  1.7607e-04  1.3838e-01  7.5257e-04  1.2698e-04  6.7211e-05  0:00:18 1652
   349  7.2372e-04  7.2994e-04  1.7668e-04  1.3181e-01  7.2229e-04  1.2630e-04  6.7620e-05  0:00:15 1651
   350  6.8713e-04  7.1046e-04  1.7590e-04  1.2421e-01  6.8580e-04  1.2553e-04  6.8299e-05  0:05:42 1650
   351  6.4487e-04  6.9101e-04  1.7373e-04  1.1567e-01  6.4364e-04  1.2485e-04  6.8714e-05  0:04:33 1649
   352  5.9753e-04  6.7218e-04  1.7024e-04  1.0629e-01  5.9641e-04  1.2431e-04  6.9151e-05  0:03:39 1648

  iter  continuity  x-velocity  y-velocity  z-velocity      energy           k       omega     time/iter
   353  5.4575e-04  6.5445e-04  1.6553e-04  9.6219e-02  5.4476e-04  1.2410e-04  6.9494e-05  0:02:55 1647
   354  4.9026e-04  6.3840e-04  1.5965e-04  8.5615e-02  4.8940e-04  1.2399e-04  6.8942e-05  0:02:20 1646
   355  4.3184e-04  6.2452e-04  1.5271e-04  7.4713e-02  4.3113e-04  1.2377e-04  6.8221e-05  0:01:52 1645
   356  3.7140e-04  6.1319e-04  1.4482e-04  6.4230e-02  3.7085e-04  1.2343e-04  6.7404e-05  0:01:29 1644
   357  3.1003e-04  6.0465e-04  1.3616e-04  5.4272e-02  3.0965e-04  1.2298e-04  6.6638e-05  0:01:11 1643
   358  2.4920e-04  5.9904e-04  1.2688e-04  4.5650e-02  2.4903e-04  1.2229e-04  6.5585e-05  0:00:57 1642
   359  1.9136e-04  5.9630e-04  1.1721e-04  3.9695e-02  1.9146e-04  1.2150e-04  6.3991e-05  0:00:46 1641
   360  1.4156e-04  5.9625e-04  1.0737e-04  3.7621e-02  1.4202e-04  1.2060e-04  6.2219e-05  0:00:36 1640
   361  1.1124e-04  5.9858e-04  9.7652e-05  3.9655e-02  1.1209e-04  1.1959e-04  6.0339e-05  0:00:29 1639
   362  1.1526e-04  6.0287e-04  8.8409e-05  4.5025e-02  1.1621e-04  1.1842e-04  5.8597e-05  0:00:23 1638
   363  1.4873e-04  6.0865e-04  8.0063e-05  5.2299e-02  1.4947e-04  1.1718e-04  5.7242e-05  0:00:19 1637

  iter  continuity  x-velocity  y-velocity  z-velocity      energy           k       omega     time/iter
   364  1.9482e-04  6.1540e-04  7.3114e-05  6.0354e-02  1.9533e-04  1.1586e-04  5.5783e-05  0:00:15 1636
   365  2.4421e-04  6.2261e-04  6.8087e-05  6.8600e-02  2.4453e-04  1.1443e-04  5.4276e-05  0:00:12 1635
   366  2.9301e-04  6.2979e-04  6.5418e-05  7.6570e-02  2.9317e-04  1.1285e-04  5.3321e-05  0:00:10 1634
   367  3.3936e-04  6.3651e-04  6.5285e-05  8.4046e-02  3.3939e-04  1.1119e-04  5.2473e-05  0:05:34 1633
   368  3.8222e-04  6.4237e-04  6.7503e-05  9.0922e-02  3.8215e-04  1.0965e-04  5.1730e-05  0:04:27 1632
   369  4.2092e-04  6.4705e-04  7.1592e-05  9.7003e-02  4.2075e-04  1.0827e-04  5.1119e-05  0:03:34 1631
   370  4.5497e-04  6.5029e-04  7.6956e-05  1.0219e-01  4.5472e-04  1.0743e-04  5.0861e-05  0:02:51 1630
   371  4.8403e-04  6.5192e-04  8.3029e-05  1.0629e-01  4.8371e-04  1.0676e-04  5.0847e-05  0:02:17 1629
   372  5.0786e-04  6.5180e-04  8.9348e-05  1.0939e-01  5.0748e-04  1.0615e-04  5.0877e-05  0:01:49 1628
   373  5.2628e-04  6.4984e-04  9.5526e-05  1.1148e-01  5.2586e-04  1.0565e-04  5.0998e-05  0:01:27 1627
   374  5.3922e-04  6.4605e-04  1.0134e-04  1.1257e-01  5.3875e-04  1.0521e-04  5.1177e-05  0:01:10 1626

  iter  continuity  x-velocity  y-velocity  z-velocity      energy           k       omega     time/iter
   375  5.4667e-04  6.4055e-04  1.0659e-04  1.1273e-01  5.4617e-04  1.0462e-04  5.2021e-05  0:00:56 1625
   376  5.4867e-04  6.3340e-04  1.1113e-04  1.1191e-01  5.4814e-04  1.0397e-04  5.2763e-05  0:00:45 1624
   377  5.4532e-04  6.2478e-04  1.1486e-04  1.1010e-01  5.4476e-04  1.0325e-04  5.3432e-05  0:00:36 1623
   378  5.3678e-04  6.1489e-04  1.1769e-04  1.0733e-01  5.3620e-04  1.0248e-04  5.4040e-05  0:00:29 1622
   379  5.2326e-04  6.0397e-04  1.1958e-04  1.0363e-01  5.2267e-04  1.0162e-04  5.4673e-05  0:00:23 1621
   380  5.0504e-04  5.9231e-04  1.2051e-04  9.9031e-02  5.0443e-04  1.0072e-04  5.5140e-05  0:00:18 1620
   381  4.8241e-04  5.8020e-04  1.2048e-04  9.3524e-02  4.8179e-04  9.9879e-05  5.5077e-05  0:00:15 1619
   382  4.5574e-04  5.6798e-04  1.1949e-04  8.7211e-02  4.5510e-04  9.9175e-05  5.4389e-05  0:00:12 1618
   383  4.2542e-04  5.5595e-04  1.1758e-04  8.0255e-02  4.2475e-04  9.8486e-05  5.3341e-05  0:00:09 1617
   384  3.9187e-04  5.4444e-04  1.1478e-04  7.2836e-02  3.9117e-04  9.7900e-05  5.2572e-05  0:00:07 1616
   385  3.5558e-04  5.3375e-04  1.1115e-04  6.5053e-02  3.5484e-04  9.7293e-05  5.2286e-05  0:05:29 1615

  iter  continuity  x-velocity  y-velocity  z-velocity      energy           k       omega     time/iter
   386  3.1704e-04  5.2415e-04  1.0675e-04  5.6996e-02  3.1625e-04  9.6651e-05  5.2098e-05  0:04:23 1614
   387  2.7685e-04  5.1587e-04  1.0168e-04  4.8839e-02  2.7597e-04  9.5975e-05  5.2043e-05  0:03:30 1613
   388  2.3566e-04  5.0907e-04  9.6013e-05  4.1046e-02  2.3465e-04  9.5198e-05  5.1819e-05  0:02:48 1612
   389  1.9431e-04  5.0387e-04  8.9869e-05  3.4031e-02  1.9311e-04  9.4340e-05  5.1396e-05  0:02:14 1611
   390  1.5404e-04  5.0027e-04  8.3372e-05  2.8372e-02  1.5253e-04  9.3656e-05  5.0865e-05  0:01:47 1610
   391  1.1701e-04  4.9823e-04  7.6668e-05  2.5128e-02  1.1503e-04  9.2924e-05  5.0279e-05  0:01:26 1609
   392  8.7948e-05  4.9762e-04  6.9930e-05  2.4830e-02  8.5274e-05  9.2105e-05  4.9514e-05  0:01:09 1608
   393  7.6008e-05  4.9824e-04  6.3368e-05  2.7019e-02  7.2846e-05  9.1319e-05  4.8536e-05  0:00:55 1607
   394  8.7119e-05  4.9988e-04  5.7234e-05  3.0755e-02  8.4311e-05  9.0469e-05  4.7081e-05  0:00:44 1606
   395  1.1318e-04  5.0229e-04  5.1837e-05  3.5222e-02  1.1097e-04  8.9519e-05  4.5631e-05  0:00:35 1605
   396  1.4478e-04  5.0517e-04  4.7527e-05  3.9836e-02  1.4301e-04  8.8515e-05  4.4236e-05  0:00:28 1604

  iter  continuity  x-velocity  y-velocity  z-velocity      energy           k       omega     time/iter
   397  1.7742e-04  5.0828e-04  4.4652e-05  4.4219e-02  1.7594e-04  8.7435e-05  4.3179e-05  0:00:22 1603
   398  2.0915e-04  5.1135e-04  4.3457e-05  4.8271e-02  2.0785e-04  8.6258e-05  4.2134e-05  0:00:18 1602
   399  2.3893e-04  5.1415e-04  4.3971e-05  5.1862e-02  2.3777e-04  8.5021e-05  4.1135e-05  0:00:14 1601
   400  2.6618e-04  5.1647e-04  4.5977e-05  5.4903e-02  2.6512e-04  8.3761e-05  4.0099e-05  0:00:11 1600
   401  2.9049e-04  5.1813e-04  4.9098e-05  5.7373e-02  2.8951e-04  8.2679e-05  3.9157e-05  0:05:29 1599
   402  3.1160e-04  5.1901e-04  5.2925e-05  5.9264e-02  3.1068e-04  8.2011e-05  3.8383e-05  0:04:23 1598
   403  3.2929e-04  5.1900e-04  5.7098e-05  6.0588e-02  3.2843e-04  8.1344e-05  3.7616e-05  0:03:30 1597
   404  3.4344e-04  5.1804e-04  6.1333e-05  6.1368e-02  3.4263e-04  8.0724e-05  3.7166e-05  0:02:48 1596
   405  3.5397e-04  5.1611e-04  6.5415e-05  6.1474e-02  3.5321e-04  8.0246e-05  3.6783e-05  0:02:14 1595
   406  3.6086e-04  5.1324e-04  6.9185e-05  6.0992e-02  3.6013e-04  7.9819e-05  3.6386e-05  0:01:47 1594
   407  3.6410e-04  5.0944e-04  7.2528e-05  5.9988e-02  3.6342e-04  7.9423e-05  3.6070e-05  0:01:26 1593

  iter  continuity  x-velocity  y-velocity  z-velocity      energy           k       omega     time/iter
   408  3.6377e-04  5.0481e-04  7.5358e-05  5.8056e-02  3.6313e-04  7.9127e-05  3.6087e-05  0:01:09 1592
   409  3.5995e-04  4.9944e-04  7.7615e-05  5.5547e-02  3.5935e-04  7.8816e-05  3.6328e-05  0:00:55 1591
   410  3.5276e-04  4.9345e-04  7.9261e-05  5.2451e-02  3.5221e-04  7.8501e-05  3.6640e-05  0:00:44 1590
   411  3.4238e-04  4.8701e-04  8.0270e-05  4.8765e-02  3.4187e-04  7.8142e-05  3.6968e-05  0:00:35 1589
   412  3.2899e-04  4.8025e-04  8.0632e-05  4.4576e-02  3.2853e-04  7.7731e-05  3.7287e-05  0:00:28 1588
   413  3.1281e-04  4.7335e-04  8.0351e-05  4.0042e-02  3.1240e-04  7.7383e-05  3.7558e-05  0:00:22 1587
   414  2.9409e-04  4.6649e-04  7.9438e-05  3.5329e-02  2.9373e-04  7.7079e-05  3.7487e-05  0:00:18 1586
   415  2.7310e-04  4.5983e-04  7.7912e-05  3.0285e-02  2.7279e-04  7.6853e-05  3.7339e-05  0:00:14 1585
   416  2.5013e-04  4.5353e-04  7.5809e-05  2.5397e-02  2.4987e-04  7.6699e-05  3.7403e-05  0:00:11 1584
   417  2.2549e-04  4.4773e-04  7.3169e-05  2.1080e-02  2.2529e-04  7.6554e-05  3.7663e-05  0:00:09 1583
   418  1.9953e-04  4.4256e-04  7.0039e-05  1.8015e-02  1.9939e-04  7.6336e-05  3.7833e-05  0:05:24 1582

  iter  continuity  x-velocity  y-velocity  z-velocity      energy           k       omega     time/iter
   419  1.7263e-04  4.3810e-04  6.6477e-05  1.7208e-02  1.7255e-04  7.6192e-05  3.7860e-05  0:04:19 1581
   420  1.4522e-04  4.3442e-04  6.2547e-05  1.9209e-02  1.4521e-04  7.6042e-05  3.7765e-05  0:03:27 1580
   421  1.1789e-04  4.3153e-04  5.8325e-05  2.3167e-02  1.1796e-04  7.5835e-05  3.7555e-05  0:02:45 1579
   422  9.1513e-05  4.2944e-04  5.3897e-05  2.8277e-02  9.1664e-05  7.5575e-05  3.7230e-05  0:02:12 1578
   423  6.7780e-05  4.2809e-04  4.9365e-05  3.3962e-02  6.8037e-05  7.5247e-05  3.6791e-05  0:01:46 1577
   424  5.0634e-05  4.2742e-04  4.4847e-05  3.9872e-02  5.0998e-05  7.4824e-05  3.6305e-05  0:01:25 1576
   425  4.7154e-05  4.2733e-04  4.0489e-05  4.5762e-02  4.7515e-05  7.4325e-05  3.5787e-05  0:01:08 1575
   426  5.8757e-05  4.2769e-04  3.6468e-05  5.1437e-02  5.8986e-05  7.3743e-05  3.5213e-05  0:00:54 1574
   427  7.7954e-05  4.2839e-04  3.2995e-05  5.6851e-02  7.8056e-05  7.3073e-05  3.4541e-05  0:00:43 1573
   428  9.9395e-05  4.2928e-04  3.0311e-05  6.1889e-02  9.9404e-05  7.2338e-05  3.3679e-05  0:00:35 1572
   429  1.2087e-04  4.3023e-04  2.8640e-05  6.6471e-02  1.2081e-04  7.1553e-05  3.2866e-05  0:00:28 1571

  iter  continuity  x-velocity  y-velocity  z-velocity      energy           k       omega     time/iter
   430  1.4141e-04  4.3112e-04  2.8120e-05  7.0593e-02  1.4129e-04  7.0761e-05  3.2096e-05  0:00:22 1570
   431  1.6049e-04  4.3182e-04  2.8723e-05  7.4242e-02  1.6033e-04  6.9961e-05  3.1304e-05  0:05:31 1569
   432  1.7780e-04  4.3223e-04  3.0266e-05  7.7451e-02  1.7760e-04  6.9111e-05  3.0576e-05  0:04:25 1568
   433  1.9311e-04  4.3226e-04  3.2478e-05  8.0192e-02  1.9288e-04  6.8391e-05  3.0144e-05  0:03:32 1567
   434  2.0628e-04  4.3185e-04  3.5087e-05  8.2361e-02  2.0602e-04  6.7928e-05  2.9993e-05  0:02:49 1566
   435  2.1719e-04  4.3094e-04  3.7867e-05  8.3951e-02  2.1691e-04  6.7530e-05  2.9994e-05  0:02:15 1565
   436  2.2578e-04  4.2951e-04  4.0640e-05  8.4957e-02  2.2548e-04  6.7177e-05  3.0001e-05  0:01:48 1564
   437  2.3200e-04  4.2755e-04  4.3278e-05  8.5334e-02  2.3169e-04  6.6908e-05  2.9985e-05  0:01:27 1563
   438  2.3586e-04  4.2507e-04  4.5684e-05  8.5142e-02  2.3554e-04  6.6689e-05  2.9948e-05  0:01:09 1562
   439  2.3736e-04  4.2211e-04  4.7790e-05  8.4375e-02  2.3703e-04  6.6464e-05  2.9863e-05  0:00:55 1561
   440  2.3656e-04  4.1870e-04  4.9545e-05  8.3066e-02  2.3622e-04  6.6196e-05  2.9812e-05  0:00:44 1560

  iter  continuity  x-velocity  y-velocity  z-velocity      energy           k       omega     time/iter
   441  2.3352e-04  4.1490e-04  5.0915e-05  8.1241e-02  2.3317e-04  6.5886e-05  2.9755e-05  0:00:35 1559
   442  2.2832e-04  4.1077e-04  5.1879e-05  7.8910e-02  2.2797e-04  6.5534e-05  2.9773e-05  0:00:28 1558
   443  2.2109e-04  4.0639e-04  5.2424e-05  7.6126e-02  2.2074e-04  6.5133e-05  2.9783e-05  0:00:23 1557
   444  2.1195e-04  4.0186e-04  5.2546e-05  7.2887e-02  2.1160e-04  6.4702e-05  2.9934e-05  0:00:18 1556
   445  2.0106e-04  3.9726e-04  5.2249e-05  6.9180e-02  2.0070e-04  6.4255e-05  3.0054e-05  0:00:14 1555
   446  1.8856e-04  3.9268e-04  5.1544e-05  6.5097e-02  1.8820e-04  6.3848e-05  3.0118e-05  0:05:22 1554
   447  1.7466e-04  3.8820e-04  5.0447e-05  6.0760e-02  1.7428e-04  6.3542e-05  3.0195e-05  0:04:18 1553
   448  1.5953e-04  3.8392e-04  4.8981e-05  5.6168e-02  1.5914e-04  6.3285e-05  3.0248e-05  0:03:26 1552
   449  1.4339e-04  3.7989e-04  4.7173e-05  5.1244e-02  1.4299e-04  6.3015e-05  3.0252e-05  0:02:45 1551
   450  1.2648e-04  3.7619e-04  4.5057e-05  4.6251e-02  1.2605e-04  6.2713e-05  3.0197e-05  0:02:12 1550
   451  1.0905e-04  3.7285e-04  4.2671e-05  4.1368e-02  1.0858e-04  6.2383e-05  3.0009e-05  0:01:45 1549

  iter  continuity  x-velocity  y-velocity  z-velocity      energy           k       omega     time/iter
   452  9.1430e-05  3.6989e-04  4.0060e-05  3.6312e-02  9.0895e-05  6.2133e-05  2.9757e-05  0:01:24 1548
   453  7.4032e-05  3.6733e-04  3.7273e-05  3.1285e-02  7.3399e-05  6.1835e-05  2.9476e-05  0:01:07 1547
   454  5.7540e-05  3.6516e-04  3.4368e-05  2.6447e-02  5.6751e-05  6.1497e-05  2.9124e-05  0:00:54 1546
   455  4.3293e-05  3.6336e-04  3.1414e-05  2.2061e-02  4.2265e-05  6.1134e-05  2.8752e-05  0:00:43 1545
   456  3.4152e-05  3.6190e-04  2.8492e-05  1.8302e-02  3.2859e-05  6.0771e-05  2.8306e-05  0:00:34 1544
   457  3.3985e-05  3.6072e-04  2.5698e-05  1.5312e-02  3.2690e-05  6.0349e-05  2.7790e-05  0:00:27 1543
   458  4.2230e-05  3.5979e-04  2.3151e-05  1.3459e-02  4.1192e-05  5.9880e-05  2.7220e-05  0:00:22 1542
   459  5.4533e-05  3.5905e-04  2.0995e-05  1.2948e-02  5.3726e-05  5.9390e-05  2.6603e-05  0:00:18 1541
   460  6.8056e-05  3.5843e-04  1.9385e-05  1.3550e-02  6.7403e-05  5.8851e-05  2.5973e-05  0:00:14 1540
   461  8.1544e-05  3.5787e-04  1.8458e-05  1.4713e-02  8.0992e-05  5.8300e-05  2.5318e-05  0:05:19 1539
   462  9.4408e-05  3.5730e-04  1.8281e-05  1.5999e-02  9.3924e-05  5.7748e-05  2.4670e-05  0:04:15 1538

  iter  continuity  x-velocity  y-velocity  z-velocity      energy           k       omega     time/iter
   463  1.0632e-04  3.5666e-04  1.8812e-05  1.7085e-02  1.0589e-04  5.7178e-05  2.4014e-05  0:03:24 1537
   464  1.1708e-04  3.5591e-04  1.9914e-05  1.7835e-02  1.1668e-04  5.6600e-05  2.3435e-05  0:02:43 1536
   465  1.2655e-04  3.5500e-04  2.1409e-05  1.8204e-02  1.2618e-04  5.6138e-05  2.2949e-05  0:02:10 1535
   466  1.3463e-04  3.5390e-04  2.3126e-05  1.8167e-02  1.3429e-04  5.5775e-05  2.2582e-05  0:01:44 1534
   467  1.4127e-04  3.5258e-04  2.4925e-05  1.7803e-02  1.4094e-04  5.5392e-05  2.2269e-05  0:01:23 1533
   468  1.4641e-04  3.5104e-04  2.6701e-05  1.7163e-02  1.4610e-04  5.5056e-05  2.2058e-05  0:01:07 1532
   469  1.5003e-04  3.4927e-04  2.8374e-05  1.6266e-02  1.4974e-04  5.4793e-05  2.1858e-05  0:00:53 1531
   470  1.5214e-04  3.4728e-04  2.9887e-05  1.5150e-02  1.5187e-04  5.4522e-05  2.1697e-05  0:00:43 1530
   471  1.5276e-04  3.4508e-04  3.1199e-05  1.3901e-02  1.5250e-04  5.4247e-05  2.1575e-05  0:00:34 1529
   472  1.5190e-04  3.4270e-04  3.2281e-05  1.2595e-02  1.5167e-04  5.3980e-05  2.1537e-05  0:00:27 1528
   473  1.4963e-04  3.4016e-04  3.3110e-05  1.1355e-02  1.4941e-04  5.3730e-05  2.1509e-05  0:00:22 1527

  iter  continuity  x-velocity  y-velocity  z-velocity      energy           k       omega     time/iter
   474  1.4600e-04  3.3749e-04  3.3676e-05  1.0389e-02  1.4579e-04  5.3456e-05  2.1549e-05  0:00:17 1526
   475  1.4108e-04  3.3474e-04  3.3971e-05  9.9408e-03  1.4089e-04  5.3190e-05  2.1661e-05  0:00:14 1525
   476  1.3496e-04  3.3195e-04  3.3994e-05  1.0187e-02  1.3479e-04  5.2927e-05  2.1741e-05  0:05:16 1524
   477  1.2774e-04  3.2915e-04  3.3748e-05  1.1153e-02  1.2759e-04  5.2671e-05  2.1792e-05  0:04:13 1523
   478  1.1952e-04  3.2639e-04  3.3241e-05  1.2766e-02  1.1939e-04  5.2408e-05  2.1851e-05  0:03:22 1522
   479  1.1042e-04  3.2371e-04  3.2484e-05  1.4863e-02  1.1030e-04  5.2234e-05  2.1909e-05  0:02:41 1521
   480  1.0056e-04  3.2114e-04  3.1492e-05  1.7252e-02  1.0046e-04  5.2089e-05  2.1952e-05  0:02:09 1520
   481  9.0083e-05  3.1872e-04  3.0284e-05  1.9884e-02  8.9998e-05  5.1930e-05  2.1945e-05  0:01:43 1519
   482  7.9136e-05  3.1647e-04  2.8882e-05  2.2698e-02  7.9067e-05  5.1741e-05  2.1887e-05  0:01:22 1518
   483  6.7890e-05  3.1440e-04  2.7311e-05  2.5617e-02  6.7835e-05  5.1565e-05  2.1786e-05  0:01:06 1517
   484  5.6555e-05  3.1252e-04  2.5600e-05  2.8531e-02  5.6512e-05  5.1427e-05  2.1632e-05  0:00:53 1516

  iter  continuity  x-velocity  y-velocity  z-velocity      energy           k       omega     time/iter
   485  4.5418e-05  3.1084e-04  2.3782e-05  3.1365e-02  4.5384e-05  5.1248e-05  2.1423e-05  0:00:42 1515
   486  3.4961e-05  3.0933e-04  2.1895e-05  3.4102e-02  3.4930e-05  5.1023e-05  2.1188e-05  0:00:34 1514
   487  2.6174e-05  3.0799e-04  1.9984e-05  3.6698e-02  2.6133e-05  5.0777e-05  2.0943e-05  0:00:27 1513
   488  2.1152e-05  3.0679e-04  1.8102e-05  3.8983e-02  2.1083e-05  5.0483e-05  2.0686e-05  0:00:22 1512
   489  2.2235e-05  3.0571e-04  1.6314e-05  4.1047e-02  2.2135e-05  5.0151e-05  2.0405e-05  0:05:19 1511
   490  2.8308e-05  3.0474e-04  1.4699e-05  4.2844e-02  2.8192e-05  4.9813e-05  2.0094e-05  0:04:15 1510
   491  3.6537e-05  3.0382e-04  1.3350e-05  4.4430e-02  3.6411e-05  4.9434e-05  1.9743e-05  0:03:24 1509
   492  4.5336e-05  3.0294e-04  1.2368e-05  4.5803e-02  4.5201e-05  4.9052e-05  1.9387e-05  0:02:43 1508
   493  5.4015e-05  3.0205e-04  1.1836e-05  4.6951e-02  5.3871e-05  4.8645e-05  1.9021e-05  0:02:10 1507
   494  6.2243e-05  3.0113e-04  1.1788e-05  4.7838e-02  6.2089e-05  4.8240e-05  1.8651e-05  0:01:44 1506
   495  6.9830e-05  3.0015e-04  1.2187e-05  4.8486e-02  6.9669e-05  4.7848e-05  1.8297e-05  0:01:23 1505

  iter  continuity  x-velocity  y-velocity  z-velocity      energy           k       omega     time/iter
   496  7.6658e-05  2.9908e-04  1.2939e-05  4.8949e-02  7.6488e-05  4.7432e-05  1.7996e-05  0:01:07 1504
   497  8.2642e-05  2.9790e-04  1.3928e-05  4.9206e-02  8.2466e-05  4.7110e-05  1.7781e-05  0:00:53 1503
   498  8.7726e-05  2.9658e-04  1.5046e-05  4.9254e-02  8.7544e-05  4.6857e-05  1.7654e-05  0:00:43 1502
   499  9.1869e-05  2.9513e-04  1.6206e-05  4.9086e-02  9.1681e-05  4.6578e-05  1.7557e-05  0:00:34 1501
   500  9.5046e-05  2.9353e-04  1.7343e-05  4.8696e-02  9.4855e-05  4.6327e-05  1.7437e-05  0:00:27 1500
   501  9.7248e-05  2.9178e-04  1.8407e-05  4.8108e-02  9.7052e-05  4.6100e-05  1.7349e-05  0:00:22 1499
   502  9.8473e-05  2.8988e-04  1.9363e-05  4.7311e-02  9.8275e-05  4.5880e-05  1.7282e-05  0:00:17 1498
   503  9.8734e-05  2.8786e-04  2.0187e-05  4.6307e-02  9.8534e-05  4.5627e-05  1.7233e-05  0:05:13 1497
   504  9.8053e-05  2.8571e-04  2.0859e-05  4.5095e-02  9.7851e-05  4.5351e-05  1.7177e-05  0:04:10 1496
   505  9.6461e-05  2.8346e-04  2.1368e-05  4.3684e-02  9.6257e-05  4.5058e-05  1.7149e-05  0:03:20 1495
   506  9.3999e-05  2.8113e-04  2.1707e-05  4.2054e-02  9.3793e-05  4.4749e-05  1.7191e-05  0:02:40 1494

  iter  continuity  x-velocity  y-velocity  z-velocity      energy           k       omega     time/iter
   507  9.0715e-05  2.7874e-04  2.1870e-05  4.0213e-02  9.0507e-05  4.4437e-05  1.7233e-05  0:02:08 1493
   508  8.6665e-05  2.7632e-04  2.1858e-05  3.8229e-02  8.6455e-05  4.4119e-05  1.7246e-05  0:01:42 1492
   509  8.1913e-05  2.7389e-04  2.1672e-05  3.6155e-02  8.1700e-05  4.3842e-05  1.7238e-05  0:01:22 1491
   510  7.6530e-05  2.7150e-04  2.1317e-05  3.4150e-02  7.6314e-05  4.3572e-05  1.7219e-05  0:01:05 1490
   511  7.0594e-05  2.6917e-04  2.0805e-05  3.2311e-02  7.0373e-05  4.3344e-05  1.7204e-05  0:00:52 1489
   512  6.4187e-05  2.6689e-04  2.0145e-05  3.0568e-02  6.3959e-05  4.3130e-05  1.7185e-05  0:00:42 1488
   513  5.7402e-05  2.6469e-04  1.9349e-05  2.9006e-02  5.7163e-05  4.2906e-05  1.7155e-05  0:00:33 1487
   514  5.0341e-05  2.6257e-04  1.8431e-05  2.7655e-02  5.0085e-05  4.2663e-05  1.7116e-05  0:00:27 1486
   515  4.3123e-05  2.6055e-04  1.7408e-05  2.6517e-02  4.2843e-05  4.2462e-05  1.7045e-05  0:00:21 1485
   516  3.5899e-05  2.5863e-04  1.6298e-05  2.5559e-02  3.5580e-05  4.2253e-05  1.6937e-05  0:00:17 1484
   517  2.8886e-05  2.5681e-04  1.5123e-05  2.4801e-02  2.8508e-05  4.2011e-05  1.6780e-05  0:00:14 1483

  iter  continuity  x-velocity  y-velocity  z-velocity      energy           k       omega     time/iter
   518  2.2453e-05  2.5510e-04  1.3910e-05  2.4161e-02  2.1987e-05  4.1751e-05  1.6600e-05  0:00:11 1482
   519  1.7336e-05  2.5349e-04  1.2688e-05  2.3598e-02  1.6750e-05  4.1474e-05  1.6410e-05  0:05:05 1481
   520  1.4875e-05  2.5196e-04  1.1493e-05  2.3078e-02  1.4208e-05  4.1189e-05  1.6188e-05  0:04:04 1480
   521  1.6105e-05  2.5050e-04  1.0369e-05  2.2575e-02  1.5503e-05  4.0880e-05  1.5943e-05  0:03:15 1479
   522  2.0097e-05  2.4911e-04  9.3692e-06  2.2052e-02  1.9625e-05  4.0568e-05  1.5675e-05  0:02:36 1478
   523  2.5306e-05  2.4776e-04  8.5545e-06  2.1484e-02  2.4936e-05  4.0244e-05  1.5374e-05  0:02:05 1477
   524  3.0852e-05  2.4644e-04  7.9873e-06  2.0886e-02  3.0550e-05  3.9901e-05  1.5047e-05  0:01:40 1476
   525  3.6321e-05  2.4513e-04  7.7157e-06  2.0261e-02  3.6064e-05  3.9550e-05  1.4697e-05  0:01:20 1475
   526  4.1503e-05  2.4382e-04  7.7522e-06  1.9604e-02  4.1277e-05  3.9188e-05  1.4371e-05  0:01:04 1474
   527  4.6274e-05  2.4249e-04  8.0638e-06  1.8915e-02  4.6072e-05  3.8838e-05  1.4070e-05  0:00:51 1473
   528  5.0557e-05  2.4113e-04  8.5859e-06  1.8203e-02  5.0372e-05  3.8501e-05  1.3803e-05  0:00:41 1472

  iter  continuity  x-velocity  y-velocity  z-velocity      energy           k       omega     time/iter
   529  5.4297e-05  2.3972e-04  9.2450e-06  1.7410e-02  5.4124e-05  3.8243e-05  1.3614e-05  0:00:33 1471
   530  5.7456e-05  2.3827e-04  9.9749e-06  1.6643e-02  5.7294e-05  3.7994e-05  1.3490e-05  0:00:26 1470
   531  6.0008e-05  2.3676e-04  1.0723e-05  1.5941e-02  5.9855e-05  3.7740e-05  1.3374e-05  0:00:21 1469
   532  6.1939e-05  2.3519e-04  1.1449e-05  1.5146e-02  6.1792e-05  3.7491e-05  1.3269e-05  0:00:17 1468
   533  6.3241e-05  2.3357e-04  1.2125e-05  1.4347e-02  6.3100e-05  3.7262e-05  1.3178e-05  0:05:07 1467
   534  6.3915e-05  2.3189e-04  1.2727e-05  1.3621e-02  6.3780e-05  3.7033e-05  1.3097e-05  0:04:05 1466
   535  6.3969e-05  2.3016e-04  1.3242e-05  1.2949e-02  6.3838e-05  3.6799e-05  1.3056e-05  0:03:16 1465
   536  6.3417e-05  2.2838e-04  1.3657e-05  1.2483e-02  6.3291e-05  3.6578e-05  1.3006e-05  0:02:37 1464
   537  6.2281e-05  2.2657e-04  1.3966e-05  1.1888e-02  6.2160e-05  3.6336e-05  1.2983e-05  0:02:05 1463
   538  6.0588e-05  2.2473e-04  1.4163e-05  1.1295e-02  6.0470e-05  3.6081e-05  1.2992e-05  0:01:40 1462
   539  5.8368e-05  2.2287e-04  1.4248e-05  1.0799e-02  5.8254e-05  3.5825e-05  1.3003e-05  0:01:20 1461

  iter  continuity  x-velocity  y-velocity  z-velocity      energy           k       omega     time/iter
   540  5.5660e-05  2.2101e-04  1.4220e-05  1.0425e-02  5.5548e-05  3.5572e-05  1.2995e-05  0:01:04 1460
   541  5.2504e-05  2.1915e-04  1.4080e-05  1.0133e-02  5.2394e-05  3.5335e-05  1.2973e-05  0:00:51 1459
   542  4.8947e-05  2.1730e-04  1.3834e-05  9.9100e-03  4.8838e-05  3.5111e-05  1.2946e-05  0:00:41 1458
   543  4.5038e-05  2.1547e-04  1.3485e-05  9.8324e-03  4.4929e-05  3.4917e-05  1.2923e-05  0:00:33 1457
   544  4.0834e-05  2.1368e-04  1.3041e-05  9.8847e-03  4.0723e-05  3.4731e-05  1.2904e-05  0:00:26 1456
   545  3.6395e-05  2.1192e-04  1.2510e-05  1.0046e-02  3.6279e-05  3.4533e-05  1.2860e-05  0:00:21 1455
   546  3.1789e-05  2.1021e-04  1.1902e-05  1.0312e-02  3.1665e-05  3.4333e-05  1.2786e-05  0:00:17 1454
   547  2.7092e-05  2.0854e-04  1.1226e-05  1.0904e-02  2.6954e-05  3.4152e-05  1.2694e-05  0:00:13 1453
   548  2.2415e-05  2.0696e-04  1.0492e-05  1.1511e-02  2.2258e-05  3.3961e-05  1.2578e-05  0:05:01 1452
   549  1.7919e-05  2.0546e-04  9.7206e-06  1.2048e-02  1.7732e-05  3.3752e-05  1.2442e-05  0:04:01 1451
   550  1.3885e-05  2.0403e-04  8.9317e-06  1.3004e-02  1.3650e-05  3.3535e-05  1.2294e-05  0:03:12 1450

  iter  continuity  x-velocity  y-velocity  z-velocity      energy           k       omega     time/iter
   551  1.0879e-05  2.0263e-04  8.1432e-06  1.4302e-02  1.0580e-05  3.3323e-05  1.2135e-05  0:02:34 1449
   552  9.8220e-06  2.0126e-04  7.3784e-06  1.5858e-02  9.4824e-06  3.3088e-05  1.1973e-05  0:02:03 1448
   553  1.1134e-05  1.9991e-04  6.6664e-06  1.7595e-02  1.0823e-05  3.2838e-05  1.1804e-05  0:01:38 1447
   554  1.3999e-05  1.9856e-04  6.0422e-06  1.9482e-02  1.3738e-05  3.2595e-05  1.1618e-05  0:01:19 1446
   555  1.7499e-05  1.9723e-04  5.5457e-06  2.1458e-02  1.7277e-05  3.2347e-05  1.1419e-05  0:01:03 1445
   556  2.1149e-05  1.9589e-04  5.2159e-06  2.3381e-02  2.0953e-05  3.2086e-05  1.1207e-05  0:00:50 1444
   557  2.4719e-05  1.9455e-04  5.0801e-06  2.5192e-02  2.4540e-05  3.1821e-05  1.1019e-05  0:00:40 1443
   558  2.8087e-05  1.9319e-04  5.1409e-06  2.6987e-02  2.7920e-05  3.1561e-05  1.0844e-05  0:00:32 1442
   559  3.1180e-05  1.9180e-04  5.3729e-06  2.8447e-02  3.1021e-05  3.1321e-05  1.0686e-05  0:00:26 1441
   560  3.3950e-05  1.9039e-04  5.7330e-06  2.9461e-02  3.3796e-05  3.1083e-05  1.0560e-05  0:00:21 1440
   561  3.6362e-05  1.8894e-04  6.1743e-06  3.0266e-02  3.6212e-05  3.0883e-05  1.0468e-05  0:00:16 1439

  iter  continuity  x-velocity  y-velocity  z-velocity      energy           k       omega     time/iter
   562  3.8394e-05  1.8746e-04  6.6554e-06  3.0869e-02  3.8246e-05  3.0680e-05  1.0405e-05  0:00:13 1438
   563  4.0028e-05  1.8593e-04  7.1439e-06  3.1204e-02  3.9883e-05  3.0479e-05  1.0342e-05  0:04:58 1437
   564  4.1255e-05  1.8436e-04  7.6151e-06  3.1266e-02  4.1111e-05  3.0289e-05  1.0281e-05  0:03:58 1436
   565  4.2070e-05  1.8275e-04  8.0507e-06  3.1117e-02  4.1927e-05  3.0110e-05  1.0229e-05  0:03:10 1435
   566  4.2471e-05  1.8109e-04  8.4371e-06  3.0769e-02  4.2329e-05  2.9920e-05  1.0170e-05  0:02:32 1434
   567  4.2464e-05  1.7939e-04  8.7647e-06  3.0187e-02  4.2323e-05  2.9720e-05  1.0135e-05  0:02:02 1433
   568  4.2058e-05  1.7766e-04  9.0267e-06  2.9469e-02  4.1917e-05  2.9516e-05  1.0089e-05  0:01:37 1432
   569  4.1268e-05  1.7590e-04  9.2184e-06  2.8702e-02  4.1127e-05  2.9301e-05  1.0083e-05  0:01:18 1431
   570  4.0113e-05  1.7412e-04  9.3369e-06  2.8005e-02  3.9971e-05  2.9079e-05  1.0089e-05  0:01:02 1430
   571  3.8613e-05  1.7232e-04  9.3813e-06  2.7467e-02  3.8469e-05  2.8849e-05  1.0081e-05  0:00:50 1429
   572  3.6793e-05  1.7050e-04  9.3520e-06  2.7166e-02  3.6648e-05  2.8621e-05  1.0062e-05  0:00:40 1428

  iter  continuity  x-velocity  y-velocity  z-velocity      energy           k       omega     time/iter
   573  3.4683e-05  1.6867e-04  9.2506e-06  2.7163e-02  3.4534e-05  2.8396e-05  1.0036e-05  0:00:32 1427
   574  3.2312e-05  1.6681e-04  9.0798e-06  2.6537e-02  3.2158e-05  2.8168e-05  1.0004e-05  0:00:25 1426
   575  2.9708e-05  1.6492e-04  8.8426e-06  2.5027e-02  2.9546e-05  2.7968e-05  9.9724e-06  0:00:20 1425
   576  2.6917e-05  1.6309e-04  8.5349e-06  2.3744e-02  2.6748e-05  2.7786e-05  9.9358e-06  0:00:16 1424
   577  2.3981e-05  1.6131e-04  8.1747e-06  2.3018e-02  2.3800e-05  2.7604e-05  9.8883e-06  0:00:13 1423
   578  2.0945e-05  1.5956e-04  7.7708e-06  2.1675e-02  2.0748e-05  2.7438e-05  9.8232e-06  0:00:10 1422
   579  1.7868e-05  1.5786e-04  7.3272e-06  1.9917e-02  1.7647e-05  2.7282e-05  9.7437e-06  0:00:08 1421
   580  1.4826e-05  1.5618e-04  6.8535e-06  2.1176e-02  1.4569e-05  2.7115e-05  9.6562e-06  0:04:51 1420
   581  1.1932e-05  1.5452e-04  6.3577e-06  2.2488e-02  1.1622e-05  2.6936e-05  9.5559e-06  0:03:52 1419
   582  9.3904e-06  1.5287e-04  5.8485e-06  2.2867e-02  9.0027e-06  2.6752e-05  9.4508e-06  0:03:06 1418
   583  7.5846e-06  1.5125e-04  5.3392e-06  2.2999e-02  7.1060e-06  2.6557e-05  9.3401e-06  0:02:28 1417

  iter  continuity  x-velocity  y-velocity  z-velocity      energy           k       omega     time/iter
   584  7.0552e-06  1.4965e-04  4.8475e-06  2.3009e-02  6.5416e-06  2.6353e-05  9.2224e-06  0:01:59 1416
   585  7.9661e-06  1.4808e-04  4.3938e-06  2.2487e-02  7.5157e-06  2.6138e-05  9.0911e-06  0:01:35 1415
   586  9.8165e-06  1.4654e-04  4.0021e-06  2.1588e-02  9.4541e-06  2.5921e-05  8.9467e-06  0:01:16 1414
   587  1.2069e-05  1.4502e-04  3.6987e-06  2.0805e-02  1.1775e-05  2.5699e-05  8.7925e-06  0:01:01 1413
   588  1.4424e-05  1.4350e-04  3.5079e-06  2.0367e-02  1.4178e-05  2.5476e-05  8.6348e-06  0:00:48 1412
   589  1.6733e-05  1.4210e-04  3.4495e-06  2.0454e-02  1.6523e-05  2.5252e-05  8.4816e-06  0:00:39 1411
   590  1.8909e-05  1.4075e-04  3.5129e-06  2.0616e-02  1.8725e-05  2.5028e-05  8.3378e-06  0:00:31 1410
   591  2.0899e-05  1.3936e-04  3.6836e-06  2.1395e-02  2.0737e-05  2.4815e-05  8.2147e-06  0:00:25 1409
   592  2.2677e-05  1.3794e-04  3.9295e-06  2.3308e-02  2.2531e-05  2.4634e-05  8.1251e-06  0:00:20 1408
   593  2.4222e-05  1.3646e-04  4.2206e-06  2.4279e-02  2.4088e-05  2.4462e-05  8.0520e-06  0:00:16 1407
   594  2.5518e-05  1.3494e-04  4.5350e-06  2.3664e-02  2.5390e-05  2.4296e-05  7.9841e-06  0:04:54 1406

  iter  continuity  x-velocity  y-velocity  z-velocity      energy           k       omega     time/iter
   595  2.6552e-05  1.3337e-04  4.8527e-06  2.3093e-02  2.6429e-05  2.4138e-05  7.9192e-06  0:03:55 1405
   596  2.7316e-05  1.3181e-04  5.1556e-06  2.3090e-02  2.7196e-05  2.3984e-05  7.8619e-06  0:03:08 1404
   597  2.7808e-05  1.3026e-04  5.4276e-06  2.3591e-02  2.7690e-05  2.3829e-05  7.8111e-06  0:02:30 1403
   598  2.8028e-05  1.2872e-04  5.6673e-06  2.4319e-02  2.7911e-05  2.3673e-05  7.7686e-06  0:02:00 1402
   599  2.7977e-05  1.2715e-04  5.8713e-06  2.5168e-02  2.7862e-05  2.3512e-05  7.7289e-06  0:01:36 1401
   600  2.7664e-05  1.2556e-04  6.0331e-06  2.4565e-02  2.7550e-05  2.3351e-05  7.6895e-06  0:01:17 1400
   601  2.7098e-05  1.2392e-04  6.1487e-06  2.3333e-02  2.6985e-05  2.3185e-05  7.6633e-06  0:01:01 1399
   602  2.6292e-05  1.2224e-04  6.2164e-06  2.6786e-02  2.6178e-05  2.3016e-05  7.6466e-06  0:00:49 1398
   603  2.5261e-05  1.2052e-04  6.2356e-06  3.0030e-02  2.5144e-05  2.2848e-05  7.6245e-06  0:00:39 1397
   604  2.4022e-05  1.1876e-04  6.2065e-06  3.0183e-02  2.3901e-05  2.2683e-05  7.5978e-06  0:00:31 1396
   605  2.2592e-05  1.1697e-04  6.1303e-06  2.9605e-02  2.2467e-05  2.2523e-05  7.5651e-06  0:00:25 1395

  iter  continuity  x-velocity  y-velocity  z-velocity      energy           k       omega     time/iter
   606  2.0994e-05  1.1516e-04  6.0088e-06  2.8979e-02  2.0863e-05  2.2374e-05  7.5342e-06  0:00:20 1394
   607  1.9251e-05  1.1333e-04  5.8450e-06  2.8337e-02  1.9110e-05  2.2228e-05  7.5023e-06  0:00:16 1393
   608  1.7387e-05  1.1151e-04  5.6419e-06  2.7796e-02  1.7235e-05  2.2079e-05  7.4638e-06  0:00:13 1392
   609  1.5431e-05  1.0970e-04  5.4036e-06  2.7621e-02  1.5264e-05  2.1930e-05  7.4154e-06  0:00:10 1391
   610  1.3416e-05  1.0791e-04  5.1343e-06  2.8159e-02  1.3228e-05  2.1786e-05  7.3611e-06  0:04:46 1390
   611  1.1383e-05  1.0617e-04  4.8390e-06  2.9760e-02  1.1166e-05  2.1644e-05  7.2961e-06  0:03:49 1389
   612  9.3861e-06  1.0449e-04  4.5230e-06  3.1929e-02  9.1287e-06  2.1498e-05  7.2222e-06  0:03:03 1388
   613  7.5125e-06  1.0288e-04  4.1922e-06  3.1897e-02  7.1963e-06  2.1346e-05  7.1438e-06  0:02:26 1387
   614  5.9219e-06  1.0134e-04  3.8511e-06  2.5304e-02  5.5249e-06  2.1194e-05  7.0608e-06  0:01:57 1386
   615  4.9114e-06  9.9915e-05  3.5034e-06  2.1442e-02  4.4373e-06  2.1045e-05  6.9744e-06  0:01:33 1385
   616  4.8193e-06  9.8584e-05  3.1786e-06  1.8326e-02  4.3477e-06  2.0889e-05  6.8843e-06  0:01:15 1384

  iter  continuity  x-velocity  y-velocity  z-velocity      energy           k       omega     time/iter
   617  5.6251e-06  9.7327e-05  2.8883e-06  1.5743e-02  5.2353e-06  2.0727e-05  6.7872e-06  0:01:00 1383
   618  6.9518e-06  9.6129e-05  2.6420e-06  1.3759e-02  6.6450e-06  2.0563e-05  6.6843e-06  0:00:48 1382
   619  8.4838e-06  9.4977e-05  2.4536e-06  1.2347e-02  8.2362e-06  2.0394e-05  6.5756e-06  0:00:38 1381
   620  1.0054e-05  9.3860e-05  2.3367e-06  1.1603e-02  9.8459e-06  2.0219e-05  6.4673e-06  0:00:31 1380
   621  1.1576e-05  9.2767e-05  2.2998e-06  1.1463e-02  1.1395e-05  2.0043e-05  6.3647e-06  0:00:24 1379
   622  1.3003e-05  9.1691e-05  2.3427e-06  1.1729e-02  1.2841e-05  1.9869e-05  6.2676e-06  0:00:19 1378
   623  1.4306e-05  9.0626e-05  2.4556e-06  1.2353e-02  1.4157e-05  1.9692e-05  6.1843e-06  0:04:51 1377
   624  1.5467e-05  8.9573e-05  2.6207e-06  1.3192e-02  1.5327e-05  1.9516e-05  6.1079e-06  0:03:53 1376
[...]
  1838  4.1281e-09  1.4926e-08  1.4340e-09  6.1164e-03  4.0225e-09  9.7182e-10  1.0932e-09  0:00:18  162
  1839  4.1085e-09  1.5119e-08  1.4333e-09  6.2334e-03  3.9984e-09  9.7920e-10  1.1134e-09  0:00:14  161
  1840  4.1020e-09  1.5316e-08  1.4329e-09  6.3515e-03  3.9875e-09  9.8557e-10  1.1325e-09  0:00:11  160
  1841  4.1097e-09  1.5516e-08  1.4335e-09  6.4709e-03  3.9911e-09  9.9217e-10  1.1504e-09  0:00:09  159
  1842  4.1322e-09  1.5720e-08  1.4352e-09  6.5920e-03  4.0099e-09  9.9806e-10  1.1688e-09  0:00:07  158
  1843  4.1692e-09  1.5927e-08  1.4386e-09  6.7126e-03  4.0435e-09  1.0033e-09  1.1875e-09  0:00:06  157
  1844  4.2197e-09  1.6137e-08  1.4439e-09  6.8257e-03  4.0909e-09  1.0082e-09  1.2062e-09  0:00:04  156
  1845  4.2825e-09  1.6349e-08  1.4514e-09  6.9388e-03  4.1511e-09  1.0142e-09  1.2240e-09  0:00:04  155
  1846  4.3561e-09  1.6563e-08  1.4610e-09  7.0536e-03  4.2222e-09  1.0189e-09  1.2417e-09  0:00:03  154
  1847  4.4387e-09  1.6778e-08  1.4729e-09  7.1948e-03  4.3028e-09  1.0228e-09  1.2589e-09  0:00:02  153
  1848  4.5274e-09  1.6992e-08  1.4864e-09  7.3274e-03  4.3896e-09  1.0255e-09  1.2752e-09  0:00:32  152

  iter  continuity  x-velocity  y-velocity  z-velocity      energy           k       omega     time/iter
  1849  4.6184e-09  1.7204e-08  1.4994e-09  7.4581e-03  4.4788e-09  1.0273e-09  1.2906e-09  0:00:26  151
  1850  4.7078e-09  1.7414e-08  1.5122e-09  7.5927e-03  4.5667e-09  1.0284e-09  1.3058e-09  0:00:20  150
  1851  4.7938e-09  1.7619e-08  1.5253e-09  7.7270e-03  4.6511e-09  1.0287e-09  1.3198e-09  0:00:16  149
  1852  4.8760e-09  1.7820e-08  1.5394e-09  7.8614e-03  4.7318e-09  1.0284e-09  1.3334e-09  0:00:13  148
  1853  4.9549e-09  1.8017e-08  1.5556e-09  7.9959e-03  4.8093e-09  1.0275e-09  1.3464e-09  0:00:10  147
  1854  5.0308e-09  1.8208e-08  1.5741e-09  8.1307e-03  4.8838e-09  1.0265e-09  1.3589e-09  0:00:08  146
  1855  5.1027e-09  1.8397e-08  1.5934e-09  8.2662e-03  4.9541e-09  1.0262e-09  1.3706e-09  0:00:06  145
  1856  5.1691e-09  1.8579e-08  1.6132e-09  8.4024e-03  5.0190e-09  1.0269e-09  1.3823e-09  0:00:05  144
  1857  5.2288e-09  1.8756e-08  1.6325e-09  8.5396e-03  5.0771e-09  1.0284e-09  1.3937e-09  0:00:04  143
  1858  5.2814e-09  1.8928e-08  1.6515e-09  8.6776e-03  5.1280e-09  1.0312e-09  1.4054e-09  0:00:03  142
  1859  5.3280e-09  1.9095e-08  1.6707e-09  8.8166e-03  5.1728e-09  1.0348e-09  1.4171e-09  0:00:03  141

  iter  continuity  x-velocity  y-velocity  z-velocity      energy           k       omega     time/iter
  1860  5.3707e-09  1.9258e-08  1.6903e-09  8.9563e-03  5.2136e-09  1.0387e-09  1.4286e-09  0:00:02  140
  1861  5.4116e-09  1.9417e-08  1.7103e-09  9.0968e-03  5.2525e-09  1.0430e-09  1.4401e-09  0:00:29  139
  1862  5.4527e-09  1.9575e-08  1.7304e-09  9.2374e-03  5.2914e-09  1.0479e-09  1.4517e-09  0:00:23  138
  1863  5.4947e-09  1.9731e-08  1.7502e-09  9.3781e-03  5.3310e-09  1.0539e-09  1.4645e-09  0:00:19  137
  1864  5.5379e-09  1.9885e-08  1.7693e-09  9.5198e-03  5.3716e-09  1.0616e-09  1.4783e-09  0:00:15  136
  1865  5.5981e-09  2.0148e-08  1.7740e-09  9.6611e-03  5.4301e-09  1.0715e-09  1.4920e-09  0:00:12  135
  1866  5.6775e-09  2.0725e-08  1.7616e-09  9.7640e-03  5.5086e-09  1.0816e-09  1.5037e-09  0:00:09  134
  1867  5.7155e-09  2.1378e-08  1.7770e-09  9.8885e-03  5.5455e-09  1.0922e-09  1.5128e-09  0:00:07  133
  1868  5.7101e-09  2.2156e-08  1.8131e-09  1.0017e-02  5.5402e-09  1.1028e-09  1.5188e-09  0:00:06  132
  1869  5.6667e-09  2.3266e-08  1.8932e-09  1.0095e-02  5.4989e-09  1.1134e-09  1.5198e-09  0:00:05  131
  1870  5.5318e-09  2.4488e-08  2.0956e-09  1.0174e-02  5.3675e-09  1.1238e-09  1.5158e-09  0:00:04  130

  iter  continuity  x-velocity  y-velocity  z-velocity      energy           k       omega     time/iter
  1871  5.3040e-09  2.5781e-08  2.4027e-09  1.0237e-02  5.1455e-09  1.1379e-09  1.5133e-09  0:00:03  129
  1872  5.0126e-09  2.7165e-08  2.7538e-09  1.0264e-02  4.8639e-09  1.1530e-09  1.5137e-09  0:00:28  128
  1873  4.7081e-09  2.8661e-08  3.0950e-09  1.0248e-02  4.5746e-09  1.1687e-09  1.5195e-09  0:00:22  127
  1874  4.4444e-09  3.0242e-08  3.3897e-09  1.0190e-02  4.3328e-09  1.1863e-09  1.5333e-09  0:00:18  126
  1875  4.2873e-09  3.1888e-08  3.6211e-09  1.0086e-02  4.2042e-09  1.2066e-09  1.5546e-09  0:00:14  125
  1876  4.2888e-09  3.3575e-08  3.7889e-09  9.9385e-03  4.2378e-09  1.2263e-09  1.5854e-09  0:00:11  124
  1877  4.4542e-09  3.5250e-08  3.9028e-09  9.7540e-03  4.4342e-09  1.2471e-09  1.6269e-09  0:00:09  123
  1878  4.7601e-09  3.6870e-08  3.9756e-09  9.5351e-03  4.7659e-09  1.2678e-09  1.6784e-09  0:00:07  122
  1879  5.1635e-09  3.8396e-08  4.0189e-09  9.2883e-03  5.1885e-09  1.2886e-09  1.7345e-09  0:00:06  121
  1880  5.6202e-09  3.9791e-08  4.0410e-09  9.0219e-03  5.6583e-09  1.3094e-09  1.7937e-09  0:00:04  120
  1881  6.0944e-09  4.1023e-08  4.0464e-09  8.7439e-03  6.1410e-09  1.3319e-09  1.8585e-09  0:00:03  119

  iter  continuity  x-velocity  y-velocity  z-velocity      energy           k       omega     time/iter
  1882  6.5600e-09  4.2065e-08  4.0368e-09  8.4626e-03  6.6115e-09  1.3569e-09  1.9280e-09  0:00:03  118
  1883  6.9990e-09  4.2894e-08  4.0124e-09  8.1847e-03  7.0530e-09  1.3816e-09  2.0040e-09  0:00:02  117
  1884  7.3990e-09  4.3495e-08  3.9730e-09  7.9161e-03  7.4538e-09  1.4053e-09  2.0959e-09  0:00:02  116
  1885  7.7515e-09  4.3858e-08  3.9181e-09  7.6616e-03  7.8058e-09  1.4309e-09  2.1820e-09  0:00:24  115
  1886  8.0501e-09  4.3977e-08  3.8480e-09  7.4249e-03  8.1029e-09  1.4552e-09  2.2579e-09  0:00:19  114
  1887  8.2903e-09  4.3852e-08  3.7641e-09  7.2079e-03  8.3410e-09  1.4785e-09  2.3222e-09  0:00:15  113
  1888  8.4689e-09  4.3488e-08  3.6689e-09  7.0120e-03  8.5170e-09  1.5004e-09  2.3758e-09  0:00:12  112
  1889  8.5846e-09  4.2893e-08  3.5660e-09  6.8362e-03  8.6297e-09  1.5202e-09  2.4177e-09  0:00:10  111
  1890  8.6371e-09  4.2082e-08  3.4594e-09  6.6785e-03  8.6790e-09  1.5396e-09  2.4506e-09  0:00:08  110
  1891  8.6283e-09  4.1071e-08  3.3526e-09  6.5384e-03  8.6668e-09  1.5580e-09  2.4745e-09  0:00:06  109
  1892  8.5614e-09  3.9880e-08  3.2490e-09  6.4128e-03  8.5964e-09  1.5771e-09  2.4856e-09  0:00:05  108

  iter  continuity  x-velocity  y-velocity  z-velocity      energy           k       omega     time/iter
  1893  8.4415e-09  3.8534e-08  3.1509e-09  6.2971e-03  8.4729e-09  1.5971e-09  2.4847e-09  0:00:04  107
  1894  8.2754e-09  3.7056e-08  3.0600e-09  6.1855e-03  8.3032e-09  1.6160e-09  2.4719e-09  0:00:03  106
  1895  8.0720e-09  3.5473e-08  2.9764e-09  6.0742e-03  8.0962e-09  1.6353e-09  2.4594e-09  0:00:02  105
  1896  7.8407e-09  3.3812e-08  2.8987e-09  5.9614e-03  7.8613e-09  1.6550e-09  2.4567e-09  0:00:02  104
  1897  7.5927e-09  3.2099e-08  2.8252e-09  5.8455e-03  7.6097e-09  1.6744e-09  2.4592e-09  0:00:02  103
  1898  7.3395e-09  3.0361e-08  2.7539e-09  5.7231e-03  7.3529e-09  1.6976e-09  2.4730e-09  0:00:22  102
  1899  7.0936e-09  2.8624e-08  2.6827e-09  5.5873e-03  7.1032e-09  1.7248e-09  2.4945e-09  0:00:17  101
  1900  6.8664e-09  2.6912e-08  2.6098e-09  5.4384e-03  6.8723e-09  1.7563e-09  2.5111e-09  0:00:14  100
  1901  6.6684e-09  2.5248e-08  2.5337e-09  5.2806e-03  6.6704e-09  1.7898e-09  2.5320e-09  0:00:11   99
  1902  6.5081e-09  2.3651e-08  2.4538e-09  5.1125e-03  6.5063e-09  1.8245e-09  2.5551e-09  0:00:08   98
  1903  6.3920e-09  2.2142e-08  2.3700e-09  4.9351e-03  6.3863e-09  1.8606e-09  2.5704e-09  0:00:07   97

  iter  continuity  x-velocity  y-velocity  z-velocity      energy           k       omega     time/iter
  1904  6.3235e-09  2.0736e-08  2.2831e-09  4.7440e-03  6.3139e-09  1.8989e-09  2.5861e-09  0:00:05   96
  1905  6.3024e-09  1.9448e-08  2.1938e-09  4.5422e-03  6.2892e-09  1.9387e-09  2.6089e-09  0:00:04   95
  1906  6.3260e-09  1.8290e-08  2.1037e-09  4.3373e-03  6.3092e-09  1.9793e-09  2.6356e-09  0:00:03   94
  1907  6.3888e-09  1.7271e-08  2.0143e-09  4.1316e-03  6.3688e-09  2.0196e-09  2.6651e-09  0:00:03   93
  1908  6.4845e-09  1.6397e-08  1.9272e-09  3.9270e-03  6.4615e-09  2.0619e-09  2.6963e-09  0:00:02   92
  1909  6.6059e-09  1.5672e-08  1.8443e-09  3.7233e-03  6.5802e-09  2.1048e-09  2.7309e-09  0:00:02   91
  1910  6.7459e-09  1.5097e-08  1.7673e-09  3.5233e-03  6.7177e-09  2.1470e-09  2.7684e-09  0:00:01   90
  1911  6.8976e-09  1.4669e-08  1.6978e-09  3.3331e-03  6.8673e-09  2.1872e-09  2.8050e-09  0:00:19   89
  1912  7.0554e-09  1.4383e-08  1.6374e-09  3.1526e-03  7.0233e-09  2.2262e-09  2.8354e-09  0:00:15   88
  1913  7.2142e-09  1.4233e-08  1.5872e-09  2.9855e-03  7.1806e-09  2.2647e-09  2.8661e-09  0:00:12   87
  1914  7.3699e-09  1.4205e-08  1.5478e-09  2.8324e-03  7.3352e-09  2.3006e-09  2.8923e-09  0:00:09   86

  iter  continuity  x-velocity  y-velocity  z-velocity      energy           k       omega     time/iter
  1915  7.5196e-09  1.4290e-08  1.5195e-09  2.6950e-03  7.4838e-09  2.3334e-09  2.9024e-09  0:00:07   85
  1916  7.6607e-09  1.4476e-08  1.5022e-09  2.5743e-03  7.6242e-09  2.3624e-09  2.8991e-09  0:00:06   84
  1917  7.7915e-09  1.4753e-08  1.4960e-09  2.4708e-03  7.7545e-09  2.3847e-09  2.8992e-09  0:00:05   83
  1918  7.9109e-09  1.5109e-08  1.5004e-09  2.3849e-03  7.8736e-09  2.4005e-09  2.8945e-09  0:00:04   82
  1919  8.0184e-09  1.5534e-08  1.5151e-09  2.3170e-03  7.9809e-09  2.4100e-09  2.8812e-09  0:00:03   81
  1920  8.1138e-09  1.6022e-08  1.5397e-09  2.2685e-03  8.0763e-09  2.4123e-09  2.8673e-09  0:00:02   80
  1921  8.1974e-09  1.6563e-08  1.5734e-09  2.2400e-03  8.1601e-09  2.4084e-09  2.8461e-09  0:00:02   79
  1922  8.2701e-09  1.7153e-08  1.6156e-09  2.2322e-03  8.2330e-09  2.4048e-09  2.8264e-09  0:00:01   78
  1923  8.3329e-09  1.7786e-08  1.6656e-09  2.2466e-03  8.2962e-09  2.4013e-09  2.8203e-09  0:00:01   77
  1924  8.3876e-09  1.8458e-08  1.7226e-09  2.2836e-03  8.3512e-09  2.3916e-09  2.8258e-09  0:00:16   76
  1925  8.4357e-09  1.9168e-08  1.7858e-09  2.3437e-03  8.3997e-09  2.3771e-09  2.8379e-09  0:00:13   75

  iter  continuity  x-velocity  y-velocity  z-velocity      energy           k       omega     time/iter
  1926  8.4796e-09  1.9911e-08  1.8544e-09  2.4264e-03  8.4439e-09  2.3582e-09  2.8521e-09  0:00:10   74
  1927  8.5213e-09  2.0688e-08  1.9276e-09  2.5314e-03  8.4859e-09  2.3344e-09  2.8722e-09  0:00:08   73
  1928  8.5632e-09  2.1497e-08  2.0047e-09  2.6573e-03  8.5280e-09  2.3055e-09  2.8970e-09  0:00:06   72
  1929  8.6078e-09  2.2337e-08  2.0850e-09  2.8023e-03  8.5725e-09  2.2678e-09  2.9133e-09  0:00:05   71
  1930  8.6571e-09  2.3210e-08  2.1675e-09  2.9657e-03  8.6217e-09  2.2231e-09  2.9268e-09  0:00:04   70
  1931  8.7133e-09  2.4114e-08  2.2516e-09  3.1461e-03  8.6775e-09  2.1779e-09  2.9436e-09  0:00:03   69
  1932  8.7781e-09  2.5051e-08  2.3365e-09  3.3417e-03  8.7416e-09  2.1332e-09  2.9484e-09  0:00:02   68
  1933  8.8529e-09  2.6021e-08  2.4215e-09  3.5508e-03  8.8155e-09  2.0997e-09  2.9439e-09  0:00:02   67
  1934  8.9387e-09  2.7025e-08  2.5059e-09  3.7718e-03  8.9001e-09  2.0816e-09  2.9449e-09  0:00:01   66
  1935  9.0359e-09  2.8064e-08  2.5891e-09  4.0029e-03  8.9957e-09  2.0738e-09  2.9613e-09  0:00:01   65
  1936  9.1445e-09  2.9139e-08  2.6704e-09  4.2431e-03  9.1025e-09  2.0722e-09  2.9913e-09  0:00:01   64

  iter  continuity  x-velocity  y-velocity  z-velocity      energy           k       omega     time/iter
  1937  9.2640e-09  3.0251e-08  2.7495e-09  4.4909e-03  9.2199e-09  2.0771e-09  3.0478e-09  0:00:13   63
  1938  9.3934e-09  3.1400e-08  2.8258e-09  4.7449e-03  9.3468e-09  2.0875e-09  3.1091e-09  0:00:10   62
  1939  9.5312e-09  3.2589e-08  2.8994e-09  5.0037e-03  9.4819e-09  2.1028e-09  3.1680e-09  0:00:08   61
  1940  9.6756e-09  3.3819e-08  2.9702e-09  5.2657e-03  9.6235e-09  2.1233e-09  3.2186e-09  0:00:07   60
  1941  9.8247e-09  3.5092e-08  3.0387e-09  5.5297e-03  9.7696e-09  2.1498e-09  3.2780e-09  0:00:05   59
  1942  9.9762e-09  3.6412e-08  3.1056e-09  5.7935e-03  9.9179e-09  2.1896e-09  3.3336e-09  0:00:04   58
  1943  1.0128e-08  3.7782e-08  3.1724e-09  6.0550e-03  1.0066e-08  2.2328e-09  3.3854e-09  0:00:03   57
  1944  1.0278e-08  3.9207e-08  3.2405e-09  6.3131e-03  1.0213e-08  2.2747e-09  3.4237e-09  0:00:02   56
  1945  1.0424e-08  4.0696e-08  3.3124e-09  6.5698e-03  1.0356e-08  2.3320e-09  3.4558e-09  0:00:02   55
  1946  1.0565e-08  4.2256e-08  3.3913e-09  6.8240e-03  1.0494e-08  2.3949e-09  3.4772e-09  0:00:02   54
  1947  1.0546e-08  4.2411e-08  3.4990e-09  7.0743e-03  1.0474e-08  2.4600e-09  3.4872e-09  0:00:01   53

  iter  continuity  x-velocity  y-velocity  z-velocity      energy           k       omega     time/iter
  1948  1.0602e-08  4.3024e-08  3.5110e-09  7.1775e-03  1.0528e-08  2.5241e-09  3.4894e-09  0:00:01   52
  1949  1.0687e-08  4.3863e-08  3.5231e-09  7.3080e-03  1.0611e-08  2.5841e-09  3.4856e-09  0:00:01   51
  1950  1.0777e-08  4.4716e-08  3.5420e-09  7.4708e-03  1.0699e-08  2.6446e-09  3.4880e-09  0:00:11   50
  1951  1.0738e-08  4.4257e-08  3.5727e-09  7.6374e-03  1.0658e-08  2.7020e-09  3.4809e-09  0:00:08   49
  1952  1.0789e-08  4.4180e-08  3.5259e-09  7.6850e-03  1.0707e-08  2.7514e-09  3.4697e-09  0:00:07   48
  1953  1.0882e-08  4.4241e-08  3.5361e-09  7.7694e-03  1.0799e-08  2.7922e-09  3.4634e-09  0:00:05   47
  1954  1.1002e-08  4.4321e-08  3.6222e-09  7.8955e-03  1.0917e-08  2.8250e-09  3.4587e-09  0:00:04   46
  1955  1.1145e-08  4.4373e-08  3.7441e-09  8.0488e-03  1.1057e-08  2.8511e-09  3.4475e-09  0:00:03   45
  1956  1.1306e-08  4.4382e-08  3.8511e-09  8.2238e-03  1.1216e-08  2.8696e-09  3.4302e-09  0:00:02   44
  1957  1.1483e-08  4.4343e-08  3.9102e-09  8.4203e-03  1.1391e-08  2.8815e-09  3.4318e-09  0:00:02   43
  1958  1.1668e-08  4.4250e-08  3.9129e-09  8.6450e-03  1.1574e-08  2.8891e-09  3.4404e-09  0:00:01   42

  iter  continuity  x-velocity  y-velocity  z-velocity      energy           k       omega     time/iter
  1959  1.1851e-08  4.4092e-08  3.8691e-09  8.8974e-03  1.1755e-08  2.8903e-09  3.4584e-09  0:00:01   41
  1960  1.2021e-08  4.3858e-08  3.7973e-09  9.1700e-03  1.1924e-08  2.8865e-09  3.4904e-09  0:00:01   40
  1961  1.2169e-08  4.3535e-08  3.7158e-09  9.4609e-03  1.2071e-08  2.8775e-09  3.5320e-09  0:00:01   39
  1962  1.2291e-08  4.3111e-08  3.6378e-09  9.7691e-03  1.2192e-08  2.8618e-09  3.5740e-09  0:00:01   38
  1963  1.2384e-08  4.2582e-08  3.5707e-09  1.0080e-02  1.2284e-08  2.8379e-09  3.6092e-09  0:00:08   37
  1964  1.2448e-08  4.1948e-08  3.5167e-09  1.0383e-02  1.2348e-08  2.8066e-09  3.6334e-09  0:00:06   36
  1965  1.2486e-08  4.1209e-08  3.4756e-09  1.0674e-02  1.2386e-08  2.7694e-09  3.6488e-09  0:00:05   35
  1966  1.2501e-08  4.0367e-08  3.4457e-09  1.0947e-02  1.2401e-08  2.7241e-09  3.6520e-09  0:00:04   34
  1967  1.2497e-08  3.9430e-08  3.4249e-09  1.1190e-02  1.2397e-08  2.6712e-09  3.6433e-09  0:00:03   33
  1968  1.2479e-08  3.8415e-08  3.4111e-09  1.1407e-02  1.2380e-08  2.6159e-09  3.6228e-09  0:00:02   32
  1969  1.2449e-08  3.7320e-08  3.4027e-09  1.1609e-02  1.2351e-08  2.5561e-09  3.5892e-09  0:00:02   31

  iter  continuity  x-velocity  y-velocity  z-velocity      energy           k       omega     time/iter
  1970  1.2411e-08  3.6160e-08  3.3980e-09  1.1776e-02  1.2314e-08  2.4998e-09  3.5425e-09  0:00:01   30
  1971  1.2367e-08  3.4946e-08  3.3952e-09  1.1907e-02  1.2270e-08  2.4464e-09  3.4892e-09  0:00:01   29
  1972  1.2318e-08  3.3691e-08  3.3930e-09  1.2004e-02  1.2222e-08  2.3968e-09  3.4287e-09  0:00:01   28
  1973  1.2266e-08  3.2408e-08  3.3899e-09  1.2044e-02  1.2171e-08  2.3508e-09  3.3704e-09  0:00:01   27
  1974  1.2211e-08  3.1107e-08  3.3846e-09  1.2048e-02  1.2116e-08  2.3073e-09  3.3227e-09  0:00:00   26
  1975  1.2152e-08  2.9800e-08  3.3759e-09  1.2052e-02  1.2059e-08  2.2688e-09  3.2796e-09  0:00:00   25
  1976  1.2092e-08  2.8500e-08  3.3629e-09  1.2024e-02  1.2000e-08  2.2325e-09  3.2339e-09  0:00:05   24
  1977  1.2030e-08  2.7220e-08  3.3446e-09  1.1965e-02  1.1939e-08  2.2022e-09  3.2062e-09  0:00:04   23
  1978  1.1964e-08  2.5973e-08  3.3202e-09  1.1870e-02  1.1875e-08  2.1829e-09  3.1960e-09  0:00:03   22
  1979  1.1895e-08  2.4770e-08  3.2887e-09  1.1748e-02  1.1807e-08  2.1699e-09  3.1969e-09  0:00:02   21
  1980  1.1820e-08  2.3620e-08  3.2494e-09  1.1594e-02  1.1733e-08  2.1621e-09  3.2003e-09  0:00:02   20

  iter  continuity  x-velocity  y-velocity  z-velocity      energy           k       omega     time/iter
  1981  1.1739e-08  2.2535e-08  3.2021e-09  1.1432e-02  1.1654e-08  2.1668e-09  3.1955e-09  0:00:01   19
  1982  1.1649e-08  2.1518e-08  3.1465e-09  1.1251e-02  1.1566e-08  2.1828e-09  3.1975e-09  0:00:01   18
  1983  1.1550e-08  2.0581e-08  3.0801e-09  1.1044e-02  1.1468e-08  2.2062e-09  3.2062e-09  0:00:01   17
  1984  1.1441e-08  1.9723e-08  3.0029e-09  1.0826e-02  1.1360e-08  2.2318e-09  3.2258e-09  0:00:01   16
  1985  1.1319e-08  1.8952e-08  2.9177e-09  1.0598e-02  1.1239e-08  2.2637e-09  3.2518e-09  0:00:03   15
  1986  1.1182e-08  1.8264e-08  2.8274e-09  1.0351e-02  1.1104e-08  2.3053e-09  3.2771e-09  0:00:03   14
  1987  1.1028e-08  1.7659e-08  2.7342e-09  1.0088e-02  1.0952e-08  2.3547e-09  3.2960e-09  0:00:02   13
  1988  1.0855e-08  1.7133e-08  2.6392e-09  9.8152e-03  1.0780e-08  2.4138e-09  3.3118e-09  0:00:01   12
  1989  1.0661e-08  1.6683e-08  2.5431e-09  9.5309e-03  1.0587e-08  2.4782e-09  3.3300e-09  0:00:01   11
  1990  1.0446e-08  1.6302e-08  2.4467e-09  9.2396e-03  1.0374e-08  2.5440e-09  3.3466e-09  0:00:01   10
  1991  1.0210e-08  1.5985e-08  2.3503e-09  8.9431e-03  1.0141e-08  2.6065e-09  3.3593e-09  0:00:01    9

  iter  continuity  x-velocity  y-velocity  z-velocity      energy           k       omega     time/iter
  1992  9.9565e-09  1.5723e-08  2.2549e-09  8.6407e-03  9.8898e-09  2.6653e-09  3.3800e-09  0:00:00    8
  1993  9.6866e-09  1.5509e-08  2.1612e-09  8.3377e-03  9.6228e-09  2.7248e-09  3.4015e-09  0:00:00    7
  1994  9.4044e-09  1.5335e-08  2.0707e-09  8.0303e-03  9.3436e-09  2.7799e-09  3.4298e-09  0:00:00    6
  1995  9.1141e-09  1.5193e-08  1.9847e-09  7.7241e-03  9.0568e-09  2.8339e-09  3.4585e-09  0:00:00    5
  1996  8.8213e-09  1.5076e-08  1.9049e-09  7.4200e-03  8.7675e-09  2.8845e-09  3.4865e-09  0:00:00    4
  1997  8.5320e-09  1.4977e-08  1.8334e-09  7.1191e-03  8.4821e-09  2.9293e-09  3.5108e-09  0:00:00    3
  1998  8.2538e-09  1.4891e-08  1.7718e-09  6.8222e-03  8.2079e-09  2.9671e-09  3.5272e-09  0:00:00    2
  1999  7.9947e-09  1.4814e-08  1.7219e-09  6.5298e-03  7.9530e-09  2.9958e-09  3.5381e-09  0:00:00    1
  2000  7.7637e-09  1.4742e-08  1.6850e-09  6.2422e-03  7.7264e-09  3.0147e-09  3.5383e-09  0:00:00    0

> 
adjoint/                parallel/               server/
define/                 parametric-study/       solve/
display/                plot/                   surface/
exit                    preferences/            turbo-workflow/
file/                   print-license-usage     views/
mesh/                   report/

> /file/write-case-data project1
Fast-loading "C:\PROGRA~1\ANSYSI~1\v231\fluent\fluent23.1.0\\addons\afd\lib\hdfio.bin"
Done.

Writing to Engs-30669:"C:\Users\kebl7595\Desktop\CFD\Runs\Viscous\Mach 0.3\0 degrees\project1.cas.h5" in NODE0 mode and compression level 1 ...
       12996 cells,     1 zone  ...
       43722 faces,     8 zones ...
       17864 nodes,     1 zone  ...
  Done.
Done.

Writing to Engs-30669:"C:\Users\kebl7595\Desktop\CFD\Runs\Viscous\Mach 0.3\0 degrees\project1.dat.h5" in NODE0 mode and compression level 1 ...
  Writing results.
Done.

> /file/export/ascii "./surface.dat" wing te () no pressure mach-number quit no

Writing "./surface.dat"...

Writing information to ascii file ...
Done.


> /report/forces/wall-forces y 0 1 0 y "Lift"

> /report/forces/wall-forces y 1 0 0 y "Drag"

> /exit

Posting ANSYS Product Improvement Program performance data 
Done.
Auto-Transcript Stop Time:  13:58:46, 21 May 2024 GMT Daylight Time 
Total Transcript Time: 2 Minute 54 Second.
