Auto-Transcript Start Time:  11:37:47, 22 May 2024 GMT Daylight Time 
Current Directory: "C:\Users\kebl7595\Desktop\CFD\Runs\Flap\Shallower Aspect Ratio\15 degrees"

              Welcome to ANSYS Fluent 2023 R1

              Copyright 1987-2023 ANSYS, Inc. All Rights Reserved.
              Unauthorized use, distribution or duplication is prohibited.
              This product is subject to U.S. laws governing export and re-export.
              For full Legal Notice, see documentation.

Build Time: Nov 28 2022 09:52:02 EST  Build Id: 10208  
 
Connected License Server List:	1055@ansyslic.eng.ox.ac.uk

*********************************************
Info: Your license enables 4-way parallel execution.
For faster simulations, please start the application with the appropriate parallel options.
*********************************************


     --------------------------------------------------------------
     This is an academic version of ANSYS FLUENT. Usage of this product
     license is limited to the terms and conditions specified in your ANSYS
     license form, additional terms section.
     --------------------------------------------------------------
Host spawning Node 0 on machine "Engs-30669" (win64).

------------------------------------------------------------------------------------
ID    Hostname    Core  O.S.         PID    Vendor                                 
------------------------------------------------------------------------------------
n0    Engs-30669  1/32  Windows-x64  35080  13th Gen Intel(R) Core(TM) i9-13900    
host  Engs-30669        Windows-x64  26160  13th Gen Intel(R) Core(TM) i9-13900    

MPI Option Selected: intel
------------------------------------------------------------------------------------

Cleanup script file is C:\\Users\\kebl7595\\Desktop\\CFD\\Runs\\Flap\\Shallower Aspect Ratio\\15 degrees\\cleanup-fluent-Engs-30669-26160.bat

Posting ANSYS Product Improvement Program startup data
Done.

Reading journal file C:/Users/kebl7595/Desktop/CFD/Runs/Flap/Shallower Aspect Ratio/15 degrees/project1.jou...

> /file/set-batch-options no no no 

> 
define/                 parametric-study/       solve/
display/                plot/                   surface/
exit                    preferences/            switch-to-meshing-mode
file/                   print-license-usage     turbo-workflow/
mesh/                   report/                 views/
parallel/               server/

> /file/import/cgns/mesh  "./project1.cgns"
Engs-30669 has other FLUENT parallel processes running.                       Process affinity not being set.

Importing "./project1.cgns"

Opening library "C:\\PROGRA~1\\ANSYSI~1\\v231\\fluent\\fluent23.1.0\\vki\\win64\\devtools4.4.6.dll"... done.

Read    26676 nodes
   19422 hexahedral cells, zone  1
   14118 quadrilateral wall faces, zone  2.
   50733 quadrilateral interior faces, zone  3.
     474 quadrilateral interface faces, zone  4.

Building...
     mesh
     materials,
     interface,
     domains,
     zones,
	interface-default_subface
	default_interior-1
	default_subface
	default
     parallel,
The automatic selection for flux type has changed to Rhie-Chow: momentum based.

Done.


> 
adjoint/                parallel/               server/
define/                 parametric-study/       solve/
display/                plot/                   surface/
exit                    preferences/            turbo-workflow/
file/                   print-license-usage     views/
mesh/                   report/

> /define/models/solver/density-based-implicit yes

> 
adjoint/                parallel/               server/
define/                 parametric-study/       solve/
display/                plot/                   surface/
exit                    preferences/            turbo-workflow/
file/                   print-license-usage     views/
mesh/                   report/

> /define/models/energy? yes yes invalid command [yes]
yes

> /define/models/viscous/kw-standard? yes

> 
adjoint/                parallel/               server/
define/                 parametric-study/       solve/
display/                plot/                   surface/
exit                    preferences/            turbo-workflow/
file/                   print-license-usage     views/
mesh/                   report/

> /define/materials/change-create air air air is a fluid
yes 
Density
ideal-gas no data required.

no no no no no no

> 
adjoint/                parallel/               server/
define/                 parametric-study/       solve/
display/                plot/                   surface/
exit                    preferences/            turbo-workflow/
file/                   print-license-usage     views/
mesh/                   report/

> /mesh/modify-zones/sep-face-zone-angle 2 90 yes

 6474 faces in contiguous region 0
 348 faces in contiguous region 1
 618 faces in contiguous region 2
 6474 faces in contiguous region 3
 204 faces in contiguous region 4
 Separates zone 2 into 5 zone(s).
Updating new zone information...
   created new zone default_subface:009 from default_subface
   created new zone default_subface:008 from default_subface
   created new zone default_subface:007 from default_subface
   created new zone default_subface:006 from default_subface
done.

> 
adjoint/                parallel/               server/
define/                 parametric-study/       solve/
display/                plot/                   surface/
exit                    preferences/            turbo-workflow/
file/                   print-license-usage     views/
mesh/                   report/

> /define/boundary-conditions/zone-name  6 wing

> /define/boundary-conditions/zone-name  2 sym1

> /define/boundary-conditions/zone-name  8 sym2

> 
adjoint/                parallel/               server/
define/                 parametric-study/       solve/
display/                plot/                   surface/
exit                    preferences/            turbo-workflow/
file/                   print-license-usage     views/
mesh/                   report/

> /define/boundary-conditions/zone-name  7 far1

> /define/boundary-conditions/zone-name 9 far2

> 
adjoint/                parallel/               server/
define/                 parametric-study/       solve/
display/                plot/                   surface/
exit                    preferences/            turbo-workflow/
file/                   print-license-usage     views/
mesh/                   report/

> /define/boundary-conditions/zone-type  7 pressure-far-field

> /define/boundary-conditions/zone-type 9 pressure-far-field

> /define/boundary-conditions/zone-type  2 symmetry

> /define/boundary-conditions/zone-type  8 symmetry

> 
adjoint/                parallel/               server/
define/                 parametric-study/       solve/
display/                plot/                   surface/
exit                    preferences/            turbo-workflow/
file/                   print-license-usage     views/
mesh/                   report/

> /define/boundary-conditions/pressure-far-field (far2 far1)
far1 no 0 no 0.1 no 300 yes no 0.96593 no -0.25882 no 0. no yes 5 0.02

> /define/boundary-conditions/pressure-far-field (far2 far1)
far2 no 0 no 0.1 no 300 yes no 0.96593 no -0.25882 no 0. no yes 5 0.02

> 
adjoint/                parallel/               server/
define/                 parametric-study/       solve/
display/                plot/                   surface/
exit                    preferences/            turbo-workflow/
file/                   print-license-usage     views/
mesh/                   report/

> /solve/initialize/compute-defaults/pressure-far-field (far2 far1)
far1

> /solve/initialize/initialize-flow

> 
adjoint/                parallel/               server/
define/                 parametric-study/       solve/
display/                plot/                   surface/
exit                    preferences/            turbo-workflow/
file/                   print-license-usage     views/
mesh/                   report/

> /solve/monitors/residual/convergence-criteria 1.e-9 1.e-9 1.e-9 1.e-9 1.e-9 1.e-9 1.e-9

> /solve/iterate 2000

  iter  continuity  x-velocity  y-velocity  z-velocity      energy           k       omega     time/iter
     1  1.0000e+00  1.0000e+00  1.0000e+00  1.0000e+00  1.0000e+00  5.1878e-02  4.9197e-02  0:00:00 1999
     2  5.2917e-01  5.5215e-01  4.8921e-01  1.0000e+00  5.2940e-01  4.6186e-02  3.8423e-02  0:00:00 1998
     3  2.8914e-01  3.1477e-01  2.8973e-01  1.0000e+00  2.8917e-01  4.1500e-02  3.3655e-02  0:33:17 1997
     4  1.7842e-01  1.7462e-01  2.1070e-01  9.1569e-01  1.7834e-01  3.7662e-02  3.0274e-02  0:26:37 1996
     5  1.3236e-01  1.1316e-01  1.7248e-01  9.4029e-01  1.3225e-01  3.4494e-02  2.8060e-02  0:21:17 1995
     6  1.1281e-01  8.4136e-02  1.5375e-01  1.0063e+00  1.1271e-01  3.1733e-02  2.6193e-02  0:17:01 1994
     7  9.8587e-02  6.9525e-02  1.4694e-01  1.0210e+00  9.8514e-02  2.9299e-02  2.4489e-02  0:13:36 1993
     8  8.8750e-02  6.2567e-02  1.4318e-01  1.0058e+00  8.8697e-02  2.7170e-02  2.2930e-02  0:10:53 1992
     9  8.1705e-02  5.9308e-02  1.4056e-01  9.6604e-01  8.1660e-02  2.5338e-02  2.1561e-02  0:15:20 1991
    10  7.5526e-02  5.6756e-02  1.3696e-01  9.4900e-01  7.5475e-02  2.3766e-02  2.0377e-02  0:12:16 1990
    11  7.0902e-02  5.8166e-02  1.3256e-01  9.1204e-01  7.0844e-02  2.2425e-02  1.9317e-02  0:09:48 1989

  iter  continuity  x-velocity  y-velocity  z-velocity      energy           k       omega     time/iter
    12  6.8005e-02  5.9533e-02  1.2824e-01  8.9404e-01  6.7938e-02  2.1232e-02  1.8400e-02  0:07:50 1988
    13  6.2599e-02  5.9369e-02  1.2361e-01  8.9124e-01  6.2523e-02  2.0185e-02  1.7564e-02  0:06:16 1987
    14  6.1383e-02  5.7883e-02  1.1798e-01  8.8773e-01  6.1300e-02  1.9262e-02  1.6805e-02  0:05:01 1986
    15  6.0044e-02  5.7630e-02  1.1400e-01  9.1919e-01  5.9955e-02  1.8462e-02  1.6141e-02  0:04:00 1985
    16  5.9773e-02  5.7471e-02  1.1054e-01  9.6232e-01  5.9676e-02  1.7758e-02  1.5523e-02  0:09:49 1984
    17  5.8944e-02  5.8903e-02  1.0738e-01  1.0032e+00  5.8847e-02  1.7129e-02  1.4998e-02  0:07:51 1983
    18  5.6850e-02  5.9380e-02  1.0518e-01  1.0629e+00  5.6748e-02  1.6574e-02  1.4520e-02  0:06:17 1982
    19  5.5203e-02  5.9113e-02  1.0296e-01  1.1229e+00  5.5096e-02  1.6082e-02  1.4084e-02  0:05:01 1981
    20  5.4411e-02  5.8675e-02  1.0023e-01  1.1861e+00  5.4297e-02  1.5659e-02  1.3678e-02  0:04:01 1980
    21  5.5101e-02  5.7129e-02  9.7050e-02  1.2578e+00  5.4980e-02  1.5280e-02  1.3327e-02  0:03:13 1979
    22  5.5888e-02  5.5623e-02  9.4045e-02  1.2819e+00  5.5759e-02  1.4952e-02  1.3046e-02  0:02:34 1978

  iter  continuity  x-velocity  y-velocity  z-velocity      energy           k       omega     time/iter
    23  5.6975e-02  5.3688e-02  9.0956e-02  1.3111e+00  5.6843e-02  1.4721e-02  1.2768e-02  0:08:39 1977
    24  5.7080e-02  5.1767e-02  8.7277e-02  1.3557e+00  5.6948e-02  1.4497e-02  1.2515e-02  0:06:55 1976
    25  5.8038e-02  4.8442e-02  8.3979e-02  1.3558e+00  5.7912e-02  1.4263e-02  1.2229e-02  0:05:32 1975
    26  5.9146e-02  4.5170e-02  8.2015e-02  1.3200e+00  5.9022e-02  1.4073e-02  1.2021e-02  0:04:25 1974
    27  6.0300e-02  4.3121e-02  8.0456e-02  1.2901e+00  6.0185e-02  1.3935e-02  1.1832e-02  0:10:07 1973
    28  6.1422e-02  4.1718e-02  7.9824e-02  1.2486e+00  6.1317e-02  1.3756e-02  1.1557e-02  0:08:05 1972
    29  6.2174e-02  4.0153e-02  8.0074e-02  1.1888e+00  6.2075e-02  1.3530e-02  1.1308e-02  0:06:28 1971
    30  6.1333e-02  3.8725e-02  8.0294e-02  1.1260e+00  6.1238e-02  1.3375e-02  1.1154e-02  0:05:10 1970
    31  5.9395e-02  3.7799e-02  7.9798e-02  1.0588e+00  5.9300e-02  1.3233e-02  1.0952e-02  0:04:08 1969
    32  5.7424e-02  3.6875e-02  7.8204e-02  9.9999e-01  5.7329e-02  1.2989e-02  1.0689e-02  0:03:18 1968
    33  5.4227e-02  3.5868e-02  7.5467e-02  9.3198e-01  5.4133e-02  1.2764e-02  1.0455e-02  0:02:39 1967

  iter  continuity  x-velocity  y-velocity  z-velocity      energy           k       omega     time/iter
    34  5.0982e-02  3.5120e-02  7.2121e-02  8.8113e-01  5.0889e-02  1.2531e-02  1.0215e-02  0:08:40 1966
    35  4.7660e-02  3.4014e-02  6.8974e-02  8.4113e-01  4.7564e-02  1.2349e-02  1.0015e-02  0:06:56 1965
    36  4.4348e-02  3.2990e-02  6.5443e-02  8.0415e-01  4.4250e-02  1.2106e-02  9.7865e-03  0:05:32 1964
    37  4.1926e-02  3.1905e-02  6.1548e-02  7.7023e-01  4.1824e-02  1.1872e-02  9.5456e-03  0:04:26 1963
    38  3.9190e-02  3.1058e-02  5.8176e-02  7.2782e-01  3.9085e-02  1.1619e-02  9.2742e-03  0:03:33 1962
    39  3.7239e-02  3.0066e-02  5.5660e-02  6.8570e-01  3.7130e-02  1.1389e-02  9.0560e-03  0:02:50 1961
    40  3.6186e-02  2.9047e-02  5.3668e-02  6.4453e-01  3.6077e-02  1.1200e-02  8.8610e-03  0:02:16 1960
    41  3.5760e-02  2.8155e-02  5.1885e-02  6.0936e-01  3.5653e-02  1.0978e-02  8.6213e-03  0:08:20 1959
    42  3.5445e-02  2.8201e-02  5.0389e-02  5.7704e-01  3.5343e-02  1.0753e-02  8.4001e-03  0:06:40 1958
    43  3.5256e-02  2.7903e-02  4.9195e-02  5.5036e-01  3.5159e-02  1.0572e-02  8.2021e-03  0:05:20 1957
    44  3.5671e-02  2.7575e-02  4.8580e-02  5.3082e-01  3.5580e-02  1.0383e-02  8.0173e-03  0:04:16 1956

  iter  continuity  x-velocity  y-velocity  z-velocity      energy           k       omega     time/iter
    45  3.6192e-02  2.7496e-02  4.8401e-02  5.2519e-01  3.6106e-02  1.0244e-02  7.8237e-03  0:03:25 1955
    46  3.5704e-02  2.7765e-02  4.8234e-02  5.3125e-01  3.5623e-02  1.0132e-02  7.6925e-03  0:02:44 1954
    47  3.4577e-02  2.8198e-02  4.7869e-02  5.5141e-01  3.4499e-02  1.0023e-02  7.5670e-03  0:08:41 1953
    48  3.3718e-02  2.8757e-02  4.8040e-02  5.8083e-01  3.3644e-02  9.9350e-03  7.4431e-03  0:06:57 1952
    49  3.1981e-02  2.9096e-02  4.7941e-02  6.1661e-01  3.1905e-02  9.8330e-03  7.3544e-03  0:05:33 1951
    50  3.0293e-02  2.9288e-02  4.7742e-02  6.5433e-01  3.0216e-02  9.7844e-03  7.3026e-03  0:04:27 1950
    51  2.9459e-02  2.9337e-02  4.7590e-02  6.9751e-01  2.9384e-02  9.7257e-03  7.2498e-03  0:03:33 1949
    52  2.9138e-02  2.9082e-02  4.7622e-02  7.4016e-01  2.9065e-02  9.6619e-03  7.1981e-03  0:02:50 1948
    53  2.9423e-02  2.8507e-02  4.7396e-02  7.8086e-01  2.9353e-02  9.6566e-03  7.1379e-03  0:02:16 1947
    54  3.0327e-02  2.7664e-02  4.6856e-02  8.1539e-01  3.0260e-02  9.6371e-03  7.0901e-03  0:08:18 1946
    55  3.1604e-02  2.6479e-02  4.6570e-02  8.5042e-01  3.1541e-02  9.6195e-03  7.0530e-03  0:06:38 1945

  iter  continuity  x-velocity  y-velocity  z-velocity      energy           k       omega     time/iter
    56  3.3176e-02  2.5210e-02  4.6258e-02  8.7872e-01  3.3116e-02  9.6026e-03  6.9976e-03  0:05:18 1944
    57  3.4799e-02  2.4283e-02  4.6227e-02  8.9671e-01  3.4741e-02  9.6537e-03  6.9507e-03  0:04:15 1943
    58  3.6721e-02  2.3627e-02  4.6489e-02  8.9750e-01  3.6667e-02  9.7052e-03  6.8928e-03  0:03:24 1942
    59  3.9210e-02  2.3119e-02  4.7031e-02  8.7754e-01  3.9161e-02  9.7525e-03  6.8256e-03  0:02:43 1941
    60  4.1963e-02  2.3140e-02  4.7949e-02  8.4786e-01  4.1918e-02  9.7012e-03  6.7797e-03  0:02:10 1940
    61  4.4352e-02  2.3304e-02  4.9413e-02  8.0992e-01  4.4309e-02  9.7294e-03  6.7509e-03  0:08:12 1939
    62  4.5595e-02  2.3529e-02  5.1615e-02  7.7107e-01  4.5552e-02  9.7991e-03  6.7433e-03  0:06:33 1938
    63  4.6409e-02  2.4208e-02  5.3594e-02  7.2040e-01  4.6367e-02  9.8728e-03  6.6707e-03  0:05:14 1937
    64  4.6935e-02  2.4787e-02  5.5277e-02  6.7422e-01  4.6893e-02  9.9262e-03  6.6481e-03  0:04:11 1936
    65  4.6771e-02  2.5586e-02  5.6847e-02  6.5149e-01  4.6729e-02  9.9279e-03  6.5692e-03  0:03:21 1935
    66  4.4914e-02  2.5869e-02  5.7453e-02  6.2682e-01  4.4868e-02  9.9378e-03  6.5472e-03  0:02:41 1934

  iter  continuity  x-velocity  y-velocity  z-velocity      energy           k       omega     time/iter
    67  4.2549e-02  2.5967e-02  5.7352e-02  6.0294e-01  4.2498e-02  9.9296e-03  6.4723e-03  0:08:35 1933
    68  3.9907e-02  2.5463e-02  5.6329e-02  5.8509e-01  3.9849e-02  9.9139e-03  6.4415e-03  0:06:52 1932
    69  3.7455e-02  2.5024e-02  5.4935e-02  5.4682e-01  3.7390e-02  9.8058e-03  6.3593e-03  0:05:29 1931
    70  3.5915e-02  2.4247e-02  5.2580e-02  5.2366e-01  3.5845e-02  9.7112e-03  6.2664e-03  0:04:23 1930
    71  3.4770e-02  2.3373e-02  5.0029e-02  5.2529e-01  3.4695e-02  9.6222e-03  6.2030e-03  0:03:31 1929
    72  3.4559e-02  2.2723e-02  4.7719e-02  5.4006e-01  3.4480e-02  9.5383e-03  6.1161e-03  0:02:48 1928
    73  3.4107e-02  2.2384e-02  4.5221e-02  5.6935e-01  3.4024e-02  9.4303e-03  6.0530e-03  0:08:40 1927
    74  3.4366e-02  2.1622e-02  4.3132e-02  6.0941e-01  3.4281e-02  9.3259e-03  5.9439e-03  0:06:56 1926
    75  3.5159e-02  2.0780e-02  4.1601e-02  6.5679e-01  3.5076e-02  9.2149e-03  5.8587e-03  0:05:32 1925
    76  3.6475e-02  2.0684e-02  4.0455e-02  7.0519e-01  3.6397e-02  9.1201e-03  5.7384e-03  0:04:26 1924
    77  3.7404e-02  2.0366e-02  3.9518e-02  7.5116e-01  3.7330e-02  9.0822e-03  5.6677e-03  0:03:33 1923

  iter  continuity  x-velocity  y-velocity  z-velocity      energy           k       omega     time/iter
    78  3.8554e-02  2.0481e-02  3.9321e-02  7.9373e-01  3.8484e-02  9.0496e-03  5.5736e-03  0:02:50 1922
    79  3.9293e-02  2.1000e-02  3.9763e-02  8.3022e-01  3.9226e-02  9.0009e-03  5.4717e-03  0:02:16 1921
    80  3.8659e-02  2.1810e-02  4.0270e-02  8.6292e-01  3.8594e-02  8.9791e-03  5.4318e-03  0:08:13 1920
    81  3.6957e-02  2.3200e-02  4.0871e-02  8.8954e-01  3.6892e-02  8.9926e-03  5.3987e-03  0:06:34 1919
    82  3.4968e-02  2.4705e-02  4.1435e-02  9.1587e-01  3.4903e-02  9.0382e-03  5.3672e-03  0:05:15 1918
    83  3.2975e-02  2.5881e-02  4.2328e-02  9.3875e-01  3.2909e-02  9.0849e-03  5.3659e-03  0:04:12 1917
    84  3.1954e-02  2.6894e-02  4.2925e-02  9.6643e-01  3.1890e-02  9.1055e-03  5.3757e-03  0:03:21 1916
    85  3.2102e-02  2.7717e-02  4.3117e-02  9.9315e-01  3.2045e-02  9.1411e-03  5.3950e-03  0:02:41 1915
    86  3.3303e-02  2.7948e-02  4.2532e-02  1.0235e+00  3.3253e-02  9.1914e-03  5.4069e-03  0:08:32 1914
    87  3.4514e-02  2.7797e-02  4.2251e-02  1.0481e+00  3.4468e-02  9.2067e-03  5.4066e-03  0:06:49 1913
    88  3.5797e-02  2.7605e-02  4.1491e-02  1.0696e+00  3.5756e-02  9.2794e-03  5.4262e-03  0:05:27 1912

  iter  continuity  x-velocity  y-velocity  z-velocity      energy           k       omega     time/iter
    89  3.7484e-02  2.6917e-02  4.0783e-02  1.0760e+00  3.7449e-02  9.2687e-03  5.4452e-03  0:04:22 1911
    90  3.9158e-02  2.6230e-02  3.9698e-02  1.0802e+00  3.9130e-02  9.3373e-03  5.4325e-03  0:03:29 1910
    91  4.0790e-02  2.5208e-02  3.9121e-02  1.0746e+00  4.0767e-02  9.4064e-03  5.4162e-03  0:02:47 1909
    92  4.1649e-02  2.4173e-02  3.8884e-02  1.0523e+00  4.1631e-02  9.4257e-03  5.3859e-03  0:08:35 1908
    93  4.1356e-02  2.3316e-02  3.8500e-02  1.0298e+00  4.1342e-02  9.4155e-03  5.3094e-03  0:06:52 1907
    94  3.9717e-02  2.2322e-02  3.8344e-02  1.0152e+00  3.9706e-02  9.3918e-03  5.2827e-03  0:05:29 1906
    95  3.7895e-02  2.1394e-02  3.8055e-02  1.0090e+00  3.7886e-02  9.4466e-03  5.2147e-03  0:04:23 1905
    96  3.5095e-02  2.0588e-02  3.7827e-02  9.9685e-01  3.5087e-02  9.4081e-03  5.1871e-03  0:03:31 1904
    97  3.2340e-02  2.0022e-02  3.6906e-02  9.8471e-01  3.2335e-02  9.3469e-03  5.0691e-03  0:02:48 1903
    98  3.0429e-02  1.9522e-02  3.5766e-02  9.6789e-01  3.0426e-02  9.2577e-03  5.0091e-03  0:02:15 1902
    99  2.9085e-02  1.9273e-02  3.4165e-02  9.4977e-01  2.9083e-02  9.1681e-03  4.9223e-03  0:08:08 1901

  iter  continuity  x-velocity  y-velocity  z-velocity      energy           k       omega     time/iter
   100  2.8831e-02  1.8994e-02  3.2456e-02  9.2938e-01  2.8831e-02  9.1009e-03  4.8268e-03  0:06:30 1900
   101  2.9087e-02  1.8823e-02  3.0817e-02  9.0679e-01  2.9087e-02  9.0454e-03  4.7571e-03  0:05:12 1899
   102  2.9046e-02  1.8481e-02  2.9047e-02  8.8171e-01  2.9047e-02  8.9828e-03  4.6154e-03  0:04:09 1898
   103  2.9811e-02  1.8215e-02  2.7677e-02  8.5549e-01  2.9811e-02  8.9080e-03  4.4889e-03  0:03:19 1897
   104  2.9925e-02  1.8003e-02  2.6721e-02  8.2846e-01  2.9923e-02  8.8643e-03  4.3834e-03  0:02:39 1896
   105  2.9536e-02  1.8044e-02  2.5877e-02  7.9928e-01  2.9534e-02  8.8309e-03  4.3323e-03  0:08:26 1895
   106  2.8204e-02  1.8140e-02  2.5221e-02  7.6996e-01  2.8201e-02  8.7907e-03  4.2509e-03  0:06:45 1894
   107  2.6261e-02  1.8175e-02  2.4788e-02  7.4393e-01  2.6256e-02  8.7417e-03  4.1946e-03  0:05:24 1893
   108  2.4047e-02  1.8154e-02  2.4494e-02  7.1944e-01  2.4041e-02  8.7247e-03  4.1612e-03  0:04:19 1892
   109  2.2532e-02  1.8081e-02  2.4034e-02  6.9742e-01  2.2526e-02  8.6849e-03  4.1116e-03  0:03:27 1891
   110  2.2291e-02  1.7923e-02  2.3431e-02  6.7784e-01  2.2285e-02  8.6577e-03  4.1130e-03  0:02:46 1890

  iter  continuity  x-velocity  y-velocity  z-velocity      energy           k       omega     time/iter
   111  2.3538e-02  1.7730e-02  2.2943e-02  6.6160e-01  2.3532e-02  8.6342e-03  4.0992e-03  0:02:12 1889
   112  2.5321e-02  1.7420e-02  2.2379e-02  6.5022e-01  2.5315e-02  8.5619e-03  4.1035e-03  0:08:03 1888
   113  2.7219e-02  1.7090e-02  2.1709e-02  6.4737e-01  2.7213e-02  8.4866e-03  4.0729e-03  0:06:27 1887
   114  2.9320e-02  1.6706e-02  2.1214e-02  6.4145e-01  2.9314e-02  8.4247e-03  4.0498e-03  0:05:09 1886
   115  3.0912e-02  1.6367e-02  2.0864e-02  6.3318e-01  3.0905e-02  8.3571e-03  4.0143e-03  0:04:07 1885
   116  3.1682e-02  1.6054e-02  2.0561e-02  6.2869e-01  3.1675e-02  8.2987e-03  3.9727e-03  0:03:18 1884
   117  3.0932e-02  1.5698e-02  2.0608e-02  6.1092e-01  3.0926e-02  8.2016e-03  3.9013e-03  0:02:38 1883
   118  3.0056e-02  1.5342e-02  2.0628e-02  5.8834e-01  3.0050e-02  8.1500e-03  3.8331e-03  0:02:06 1882
   119  2.7174e-02  1.4863e-02  2.0214e-02  5.5603e-01  2.7168e-02  8.0277e-03  3.7796e-03  0:07:57 1881
   120  2.4510e-02  1.4492e-02  1.9503e-02  5.2407e-01  2.4504e-02  7.9243e-03  3.7062e-03  0:06:22 1880
   121  2.1731e-02  1.4132e-02  1.8744e-02  5.0047e-01  2.1725e-02  7.8149e-03  3.6093e-03  0:05:05 1879

  iter  continuity  x-velocity  y-velocity  z-velocity      energy           k       omega     time/iter
   122  2.0496e-02  1.3876e-02  1.7767e-02  4.8226e-01  2.0491e-02  7.7096e-03  3.5447e-03  0:04:04 1878
   123  1.9895e-02  1.3737e-02  1.6820e-02  4.6884e-01  1.9890e-02  7.6015e-03  3.4678e-03  0:03:15 1877
   124  2.0087e-02  1.3550e-02  1.5913e-02  4.5734e-01  2.0083e-02  7.4902e-03  3.3471e-03  0:02:36 1876
   125  2.1465e-02  1.3455e-02  1.5151e-02  4.4956e-01  2.1461e-02  7.3907e-03  3.2762e-03  0:08:20 1875
   126  2.2278e-02  1.3407e-02  1.4618e-02  4.4336e-01  2.2274e-02  7.3272e-03  3.2015e-03  0:06:40 1874
   127  2.2390e-02  1.3401e-02  1.4272e-02  4.3822e-01  2.2385e-02  7.2537e-03  3.1663e-03  0:05:19 1873
   128  2.1652e-02  1.3498e-02  1.4093e-02  4.3470e-01  2.1646e-02  7.1913e-03  3.1584e-03  0:04:15 1872
   129  2.0248e-02  1.3600e-02  1.4063e-02  4.3566e-01  2.0241e-02  7.1423e-03  3.1441e-03  0:03:24 1871
   130  1.8569e-02  1.3662e-02  1.4060e-02  4.3925e-01  1.8560e-02  7.0994e-03  3.1490e-03  0:02:43 1870
   131  1.7595e-02  1.3674e-02  1.4004e-02  4.4547e-01  1.7585e-02  7.0925e-03  3.1604e-03  0:08:24 1869
   132  1.7504e-02  1.3571e-02  1.3749e-02  4.5418e-01  1.7493e-02  7.0967e-03  3.1839e-03  0:06:43 1868

  iter  continuity  x-velocity  y-velocity  z-velocity      energy           k       omega     time/iter
   133  1.8854e-02  1.3425e-02  1.3542e-02  4.6345e-01  1.8842e-02  7.1237e-03  3.2165e-03  0:05:22 1867
   134  2.0367e-02  1.3233e-02  1.3302e-02  4.7357e-01  2.0355e-02  7.1534e-03  3.2178e-03  0:04:18 1866
   135  2.2282e-02  1.3047e-02  1.3133e-02  4.8481e-01  2.2271e-02  7.1826e-03  3.2123e-03  0:03:26 1865
   136  2.3927e-02  1.2816e-02  1.3072e-02  4.8950e-01  2.3915e-02  7.2246e-03  3.2082e-03  0:02:45 1864
   137  2.4806e-02  1.2638e-02  1.3054e-02  4.9175e-01  2.4794e-02  7.2558e-03  3.1968e-03  0:02:12 1863
   138  2.4314e-02  1.2464e-02  1.3181e-02  4.8369e-01  2.4301e-02  7.2997e-03  3.1615e-03  0:07:58 1862
   139  2.2674e-02  1.2302e-02  1.3223e-02  4.7264e-01  2.2660e-02  7.3204e-03  3.1309e-03  0:06:22 1861
   140  1.9874e-02  1.2134e-02  1.3108e-02  4.5943e-01  1.9858e-02  7.3744e-03  3.1049e-03  0:05:05 1860
   141  1.7214e-02  1.1973e-02  1.2808e-02  4.4846e-01  1.7197e-02  7.3922e-03  3.0785e-03  0:04:04 1859
   142  1.5770e-02  1.1835e-02  1.2440e-02  4.3884e-01  1.5752e-02  7.4142e-03  3.0380e-03  0:03:15 1858
   143  1.5977e-02  1.1750e-02  1.2019e-02  4.2997e-01  1.5957e-02  7.4415e-03  3.0052e-03  0:02:36 1857

  iter  continuity  x-velocity  y-velocity  z-velocity      energy           k       omega     time/iter
   144  1.7438e-02  1.1703e-02  1.1625e-02  4.2406e-01  1.7418e-02  7.4631e-03  2.9694e-03  0:02:05 1856
   145  1.9345e-02  1.1712e-02  1.1302e-02  4.1749e-01  1.9324e-02  7.4739e-03  2.9566e-03  0:07:51 1855
   146  2.1053e-02  1.1716e-02  1.1089e-02  4.1183e-01  2.1031e-02  7.4919e-03  2.9440e-03  0:06:16 1854
   147  2.2562e-02  1.1774e-02  1.0928e-02  4.0650e-01  2.2539e-02  7.5038e-03  2.9103e-03  0:05:01 1853
   148  2.3478e-02  1.1819e-02  1.0805e-02  4.0087e-01  2.3453e-02  7.5043e-03  2.9015e-03  0:04:01 1852
   149  2.3909e-02  1.1808e-02  1.0717e-02  3.9506e-01  2.3883e-02  7.5106e-03  2.8848e-03  0:03:12 1851
   150  2.4251e-02  1.1805e-02  1.0723e-02  3.9097e-01  2.4224e-02  7.5055e-03  2.8675e-03  0:02:34 1850
   151  2.4690e-02  1.1815e-02  1.0658e-02  3.8697e-01  2.4663e-02  7.4960e-03  2.8410e-03  0:08:13 1849
   152  2.4547e-02  1.1784e-02  1.0622e-02  3.8280e-01  2.4520e-02  7.4810e-03  2.8100e-03  0:06:34 1848
   153  2.4537e-02  1.1745e-02  1.0581e-02  3.7781e-01  2.4511e-02  7.4585e-03  2.7680e-03  0:05:15 1847
   154  2.4489e-02  1.1742e-02  1.0626e-02  3.7222e-01  2.4464e-02  7.4301e-03  2.7364e-03  0:04:12 1846

  iter  continuity  x-velocity  y-velocity  z-velocity      energy           k       omega     time/iter
   155  2.4214e-02  1.1728e-02  1.0648e-02  3.6703e-01  2.4189e-02  7.3925e-03  2.7069e-03  0:03:21 1845
   156  2.3791e-02  1.1716e-02  1.0692e-02  3.6028e-01  2.3767e-02  7.3491e-03  2.6817e-03  0:02:41 1844
   157  2.3428e-02  1.1728e-02  1.0750e-02  3.5561e-01  2.3405e-02  7.3090e-03  2.6410e-03  0:02:09 1843
   158  2.2902e-02  1.1762e-02  1.0783e-02  3.5319e-01  2.2880e-02  7.2609e-03  2.6043e-03  0:07:51 1842
   159  2.2222e-02  1.1785e-02  1.0780e-02  3.5122e-01  2.2201e-02  7.2105e-03  2.5581e-03  0:06:17 1841
   160  2.1432e-02  1.1804e-02  1.0760e-02  3.5154e-01  2.1412e-02  7.1611e-03  2.5148e-03  0:05:01 1840
   161  2.0697e-02  1.1835e-02  1.0705e-02  3.5289e-01  2.0678e-02  7.1112e-03  2.4805e-03  0:04:01 1839
   162  1.9926e-02  1.1862e-02  1.0621e-02  3.5600e-01  1.9908e-02  7.0555e-03  2.4361e-03  0:03:13 1838
   163  1.9190e-02  1.1885e-02  1.0514e-02  3.6037e-01  1.9174e-02  7.0081e-03  2.3968e-03  0:02:34 1837
   164  1.8580e-02  1.1916e-02  1.0385e-02  3.6561e-01  1.8565e-02  6.9619e-03  2.3522e-03  0:08:10 1836
   165  1.7995e-02  1.1955e-02  1.0228e-02  3.7178e-01  1.7981e-02  6.9107e-03  2.3181e-03  0:06:32 1835

  iter  continuity  x-velocity  y-velocity  z-velocity      energy           k       omega     time/iter
   166  1.7311e-02  1.1979e-02  1.0038e-02  3.7904e-01  1.7298e-02  6.8610e-03  2.2904e-03  0:05:13 1834
   167  1.6617e-02  1.1994e-02  9.8217e-03  3.8710e-01  1.6606e-02  6.8139e-03  2.2502e-03  0:04:11 1833
   168  1.6059e-02  1.2002e-02  9.5938e-03  3.9573e-01  1.6049e-02  6.7633e-03  2.2185e-03  0:03:20 1832
   169  1.5608e-02  1.2011e-02  9.3428e-03  4.0512e-01  1.5598e-02  6.7161e-03  2.1821e-03  0:02:40 1831
   170  1.5141e-02  1.2009e-02  9.0803e-03  4.1465e-01  1.5133e-02  6.6744e-03  2.1484e-03  0:08:14 1830
   171  1.4739e-02  1.1997e-02  8.8022e-03  4.2407e-01  1.4731e-02  6.6303e-03  2.1240e-03  0:06:35 1829
   172  1.4448e-02  1.1981e-02  8.5179e-03  4.3290e-01  1.4440e-02  6.5879e-03  2.0805e-03  0:05:16 1828
   173  1.4185e-02  1.1957e-02  8.2352e-03  4.4098e-01  1.4177e-02  6.5423e-03  2.0412e-03  0:04:13 1827
   174  1.3877e-02  1.1925e-02  7.9620e-03  4.4848e-01  1.3869e-02  6.5033e-03  2.0141e-03  0:03:22 1826
   175  1.3522e-02  1.1885e-02  7.6989e-03  4.5564e-01  1.3515e-02  6.4577e-03  1.9848e-03  0:02:41 1825
   176  1.3152e-02  1.1839e-02  7.4533e-03  4.6190e-01  1.3144e-02  6.4088e-03  1.9642e-03  0:02:09 1824

  iter  continuity  x-velocity  y-velocity  z-velocity      energy           k       omega     time/iter
   177  1.2785e-02  1.1787e-02  7.2296e-03  4.6768e-01  1.2777e-02  6.3629e-03  1.9362e-03  0:07:48 1823
   178  1.2425e-02  1.1730e-02  7.0255e-03  4.7253e-01  1.2417e-02  6.3226e-03  1.9186e-03  0:06:14 1822
   179  1.2065e-02  1.1667e-02  6.8511e-03  4.7625e-01  1.2057e-02  6.2836e-03  1.9067e-03  0:04:59 1821
   180  1.1734e-02  1.1601e-02  6.7108e-03  4.7899e-01  1.1726e-02  6.2460e-03  1.8887e-03  0:03:59 1820
   181  1.1441e-02  1.1534e-02  6.6043e-03  4.8069e-01  1.1433e-02  6.2146e-03  1.8761e-03  0:03:11 1819
   182  1.1196e-02  1.1468e-02  6.5315e-03  4.8141e-01  1.1188e-02  6.1824e-03  1.8622e-03  0:02:33 1818
   183  1.1001e-02  1.1403e-02  6.4898e-03  4.8106e-01  1.0993e-02  6.1527e-03  1.8554e-03  0:08:06 1817
   184  1.0844e-02  1.1342e-02  6.4775e-03  4.8016e-01  1.0836e-02  6.1262e-03  1.8462e-03  0:06:28 1816
   185  1.0714e-02  1.1285e-02  6.4895e-03  4.7765e-01  1.0705e-02  6.1018e-03  1.8344e-03  0:05:10 1815
   186  1.0610e-02  1.1237e-02  6.5229e-03  4.7499e-01  1.0601e-02  6.0793e-03  1.8225e-03  0:04:08 1814
   187  1.0514e-02  1.1200e-02  6.5716e-03  4.7224e-01  1.0505e-02  6.0643e-03  1.8125e-03  0:03:18 1813

  iter  continuity  x-velocity  y-velocity  z-velocity      energy           k       omega     time/iter
   188  1.0425e-02  1.1175e-02  6.6343e-03  4.6883e-01  1.0415e-02  6.0529e-03  1.8088e-03  0:02:39 1812
   189  1.0338e-02  1.1163e-02  6.7064e-03  4.6469e-01  1.0328e-02  6.0400e-03  1.8066e-03  0:02:07 1811
   190  1.0250e-02  1.1166e-02  6.7838e-03  4.5981e-01  1.0240e-02  6.0277e-03  1.8007e-03  0:07:43 1810
   191  1.0161e-02  1.1179e-02  6.8580e-03  4.5409e-01  1.0150e-02  6.0137e-03  1.7944e-03  0:06:11 1809
   192  1.0065e-02  1.1205e-02  6.9270e-03  4.4773e-01  1.0054e-02  5.9934e-03  1.7843e-03  0:04:56 1808
   193  9.9590e-03  1.1239e-02  6.9803e-03  4.4046e-01  9.9485e-03  5.9669e-03  1.7767e-03  0:03:57 1807
   194  9.8409e-03  1.1280e-02  7.0183e-03  4.3274e-01  9.8303e-03  5.9426e-03  1.7717e-03  0:03:09 1806
   195  9.7116e-03  1.1325e-02  7.0428e-03  4.2405e-01  9.7008e-03  5.9199e-03  1.7581e-03  0:02:31 1805
   196  9.5777e-03  1.1366e-02  7.0449e-03  4.1497e-01  9.5669e-03  5.8962e-03  1.7528e-03  0:08:02 1804
   197  9.4419e-03  1.1405e-02  7.0247e-03  4.0540e-01  9.4310e-03  5.8696e-03  1.7450e-03  0:06:25 1803
   198  9.3002e-03  1.1441e-02  6.9851e-03  3.9505e-01  9.2892e-03  5.8381e-03  1.7364e-03  0:05:08 1802

  iter  continuity  x-velocity  y-velocity  z-velocity      energy           k       omega     time/iter
   199  9.1518e-03  1.1472e-02  6.9269e-03  3.8442e-01  9.1407e-03  5.8043e-03  1.7242e-03  0:04:06 1801
   200  8.9946e-03  1.1501e-02  6.8507e-03  3.7332e-01  8.9834e-03  5.7658e-03  1.7109e-03  0:03:17 1800
   201  8.8337e-03  1.1524e-02  6.7582e-03  3.6157e-01  8.8225e-03  5.7267e-03  1.6982e-03  0:02:37 1799
   202  8.6705e-03  1.1540e-02  6.6514e-03  3.4955e-01  8.6592e-03  5.6877e-03  1.6855e-03  0:08:06 1798
   203  8.5086e-03  1.1548e-02  6.5326e-03  3.3640e-01  8.4972e-03  5.6434e-03  1.6783e-03  0:06:28 1797
   204  8.3407e-03  1.1545e-02  6.4033e-03  3.2238e-01  8.3291e-03  5.5983e-03  1.6740e-03  0:05:10 1796
   205  8.1657e-03  1.1534e-02  6.2674e-03  3.0756e-01  8.1540e-03  5.5502e-03  1.6686e-03  0:04:08 1795
   206  7.9852e-03  1.1512e-02  6.1290e-03  2.9245e-01  7.9734e-03  5.5023e-03  1.6600e-03  0:03:18 1794
   207  7.7974e-03  1.1481e-02  5.9896e-03  2.7710e-01  7.7854e-03  5.4496e-03  1.6543e-03  0:02:39 1793
   208  7.5918e-03  1.1442e-02  5.8524e-03  2.6178e-01  7.5796e-03  5.3960e-03  1.6527e-03  0:08:05 1792
   209  7.3755e-03  1.1394e-02  5.7205e-03  2.4665e-01  7.3631e-03  5.3369e-03  1.6432e-03  0:06:28 1791

  iter  continuity  x-velocity  y-velocity  z-velocity      energy           k       omega     time/iter
   210  7.1514e-03  1.1338e-02  5.5969e-03  2.3286e-01  7.1389e-03  5.2806e-03  1.6417e-03  0:05:10 1790
   211  6.9257e-03  1.1273e-02  5.4851e-03  2.2012e-01  6.9130e-03  5.2328e-03  1.6384e-03  0:04:08 1789
   212  6.7008e-03  1.1202e-02  5.3873e-03  2.0889e-01  6.6878e-03  5.1874e-03  1.6338e-03  0:03:18 1788
   213  6.4820e-03  1.1125e-02  5.3050e-03  1.9926e-01  6.4688e-03  5.1470e-03  1.6298e-03  0:02:39 1787
   214  6.2757e-03  1.1043e-02  5.2404e-03  1.9211e-01  6.2621e-03  5.1047e-03  1.6274e-03  0:02:07 1786
   215  6.0832e-03  1.0957e-02  5.1952e-03  1.8790e-01  6.0694e-03  5.0718e-03  1.6232e-03  0:07:38 1785
   216  5.9028e-03  1.0867e-02  5.1664e-03  1.8699e-01  5.8886e-03  5.0388e-03  1.6185e-03  0:06:06 1784
   217  5.7219e-03  1.0776e-02  5.1555e-03  1.8968e-01  5.7073e-03  5.0134e-03  1.6157e-03  0:04:53 1783
   218  5.5525e-03  1.0684e-02  5.1609e-03  1.9605e-01  5.5375e-03  4.9834e-03  1.6196e-03  0:03:54 1782
   219  5.3968e-03  1.0591e-02  5.1816e-03  2.0574e-01  5.3814e-03  4.9548e-03  1.6191e-03  0:03:07 1781
   220  5.2563e-03  1.0497e-02  5.2169e-03  2.1828e-01  5.2405e-03  4.9370e-03  1.6163e-03  0:02:30 1780

  iter  continuity  x-velocity  y-velocity  z-velocity      energy           k       omega     time/iter
   221  5.1294e-03  1.0402e-02  5.2662e-03  2.3346e-01  5.1130e-03  4.9150e-03  1.6116e-03  0:07:56 1779
   222  5.0142e-03  1.0306e-02  5.3278e-03  2.5056e-01  4.9973e-03  4.8905e-03  1.6059e-03  0:06:20 1778
   223  4.9088e-03  1.0208e-02  5.4007e-03  2.6901e-01  4.8914e-03  4.8713e-03  1.6031e-03  0:05:04 1777
   224  4.8130e-03  1.0109e-02  5.4836e-03  2.8828e-01  4.7950e-03  4.8433e-03  1.6024e-03  0:04:03 1776
   225  4.7259e-03  1.0009e-02  5.5748e-03  3.0817e-01  4.7074e-03  4.8258e-03  1.6000e-03  0:03:14 1775
   226  4.6450e-03  9.9051e-03  5.6721e-03  3.2931e-01  4.6260e-03  4.8035e-03  1.5958e-03  0:02:35 1774
   227  4.5682e-03  9.7941e-03  5.7741e-03  3.5082e-01  4.5488e-03  4.7721e-03  1.5877e-03  0:02:04 1773
   228  4.4954e-03  9.6779e-03  5.8790e-03  3.7216e-01  4.4755e-03  4.7486e-03  1.5793e-03  0:07:34 1772
   229  4.4237e-03  9.5579e-03  5.9857e-03  3.9333e-01  4.4033e-03  4.7230e-03  1.5697e-03  0:06:03 1771
   230  4.3520e-03  9.4348e-03  6.0953e-03  4.1405e-01  4.3312e-03  4.6994e-03  1.5602e-03  0:04:50 1770
   231  4.2804e-03  9.3103e-03  6.2067e-03  4.3431e-01  4.2592e-03  4.6694e-03  1.5505e-03  0:03:52 1769

  iter  continuity  x-velocity  y-velocity  z-velocity      energy           k       omega     time/iter
   232  4.2100e-03  9.1844e-03  6.3174e-03  4.5397e-01  4.1884e-03  4.6407e-03  1.5447e-03  0:03:05 1768
   233  4.1401e-03  9.0570e-03  6.4287e-03  4.7288e-01  4.1183e-03  4.6116e-03  1.5367e-03  0:08:22 1767
   234  4.0689e-03  8.9288e-03  6.5371e-03  4.9093e-01  4.0468e-03  4.5786e-03  1.5267e-03  0:06:41 1766
   235  3.9944e-03  8.7999e-03  6.6397e-03  5.0837e-01  3.9721e-03  4.5399e-03  1.5110e-03  0:05:21 1765
   236  3.9205e-03  8.6705e-03  6.7370e-03  5.2432e-01  3.8980e-03  4.5007e-03  1.4943e-03  0:04:16 1764
   237  3.8482e-03  8.5414e-03  6.8290e-03  5.3874e-01  3.8256e-03  4.4695e-03  1.4764e-03  0:03:25 1763
   238  3.7747e-03  8.4116e-03  6.9165e-03  5.5168e-01  3.7520e-03  4.4361e-03  1.4571e-03  0:02:44 1762
   239  3.7005e-03  8.2814e-03  6.9963e-03  5.6296e-01  3.6778e-03  4.3968e-03  1.4444e-03  0:08:03 1761
   240  3.6262e-03  8.1514e-03  7.0679e-03  5.7262e-01  3.6035e-03  4.3501e-03  1.4288e-03  0:06:26 1760
   241  3.5526e-03  8.0220e-03  7.1338e-03  5.8050e-01  3.5301e-03  4.3103e-03  1.4105e-03  0:05:09 1759
   242  3.4758e-03  7.8931e-03  7.1912e-03  5.8635e-01  3.4534e-03  4.2757e-03  1.3901e-03  0:04:07 1758

  iter  continuity  x-velocity  y-velocity  z-velocity      energy           k       omega     time/iter
   243  3.3963e-03  7.7649e-03  7.2374e-03  5.9025e-01  3.3741e-03  4.2468e-03  1.3803e-03  0:03:17 1757
   244  3.3182e-03  7.6375e-03  7.2711e-03  5.9281e-01  3.2961e-03  4.2129e-03  1.3722e-03  0:02:38 1756
   245  3.2401e-03  7.5115e-03  7.2952e-03  5.9384e-01  3.2183e-03  4.1754e-03  1.3619e-03  0:07:57 1755
   246  3.1638e-03  7.3863e-03  7.3083e-03  5.9317e-01  3.1423e-03  4.1346e-03  1.3481e-03  0:06:22 1754
   247  3.0881e-03  7.2617e-03  7.3106e-03  5.9110e-01  3.0669e-03  4.1014e-03  1.3399e-03  0:05:05 1753
   248  3.0160e-03  7.1374e-03  7.3021e-03  5.8762e-01  2.9951e-03  4.0683e-03  1.3298e-03  0:04:04 1752
   249  2.9475e-03  7.0140e-03  7.2831e-03  5.8292e-01  2.9270e-03  4.0240e-03  1.3202e-03  0:03:15 1751
   250  2.8849e-03  6.8918e-03  7.2541e-03  5.7717e-01  2.8648e-03  3.9770e-03  1.3112e-03  0:02:36 1750
   251  2.8276e-03  6.7716e-03  7.2146e-03  5.7041e-01  2.8078e-03  3.9373e-03  1.3059e-03  0:07:54 1749
   252  2.7773e-03  6.6536e-03  7.1649e-03  5.6282e-01  2.7580e-03  3.9056e-03  1.3031e-03  0:06:19 1748
   253  2.7358e-03  6.5377e-03  7.1067e-03  5.5446e-01  2.7169e-03  3.8655e-03  1.2967e-03  0:05:03 1747

  iter  continuity  x-velocity  y-velocity  z-velocity      energy           k       omega     time/iter
   254  2.7031e-03  6.4242e-03  7.0409e-03  5.4522e-01  2.6847e-03  3.8336e-03  1.2923e-03  0:04:03 1746
   255  2.6776e-03  6.3131e-03  6.9661e-03  5.3522e-01  2.6596e-03  3.8047e-03  1.2908e-03  0:03:14 1745
   256  2.6620e-03  6.2044e-03  6.8850e-03  5.2466e-01  2.6446e-03  3.7752e-03  1.2898e-03  0:02:35 1744
   257  2.6578e-03  6.0994e-03  6.7991e-03  5.1367e-01  2.6409e-03  3.7473e-03  1.2843e-03  0:02:04 1743
   258  2.6616e-03  5.9983e-03  6.7098e-03  5.0217e-01  2.6451e-03  3.7185e-03  1.2734e-03  0:07:28 1742
   259  2.6706e-03  5.9007e-03  6.6182e-03  4.9035e-01  2.6545e-03  3.6890e-03  1.2605e-03  0:05:58 1741
   260  2.6829e-03  5.8077e-03  6.5238e-03  4.7823e-01  2.6673e-03  3.6562e-03  1.2494e-03  0:04:46 1740
   261  2.6987e-03  5.7209e-03  6.4292e-03  4.6579e-01  2.6835e-03  3.6252e-03  1.2388e-03  0:03:49 1739
   262  2.7171e-03  5.6393e-03  6.3359e-03  4.5292e-01  2.7022e-03  3.5997e-03  1.2304e-03  0:03:03 1738
   263  2.7384e-03  5.5636e-03  6.2454e-03  4.3965e-01  2.7239e-03  3.5772e-03  1.2203e-03  0:02:26 1737
   264  2.7621e-03  5.4933e-03  6.1594e-03  4.2626e-01  2.7480e-03  3.5564e-03  1.2138e-03  0:07:44 1736

  iter  continuity  x-velocity  y-velocity  z-velocity      energy           k       omega     time/iter
   265  2.7863e-03  5.4290e-03  6.0784e-03  4.1287e-01  2.7725e-03  3.5393e-03  1.2059e-03  0:06:11 1735
   266  2.8091e-03  5.3745e-03  6.0024e-03  3.9976e-01  2.7956e-03  3.5161e-03  1.1982e-03  0:04:57 1734
   267  2.8334e-03  5.3248e-03  5.9324e-03  3.8676e-01  2.8201e-03  3.4935e-03  1.1919e-03  0:03:57 1733
   268  2.8582e-03  5.2798e-03  5.8685e-03  3.7392e-01  2.8452e-03  3.4750e-03  1.1876e-03  0:03:10 1732
   269  2.8776e-03  5.2390e-03  5.8119e-03  3.6137e-01  2.8648e-03  3.4584e-03  1.1866e-03  0:02:32 1731
   270  2.8986e-03  5.2016e-03  5.7648e-03  3.4901e-01  2.8860e-03  3.4446e-03  1.1872e-03  0:07:47 1730
   271  2.9154e-03  5.1684e-03  5.7266e-03  3.3698e-01  2.9030e-03  3.4323e-03  1.1855e-03  0:06:14 1729
   272  2.9286e-03  5.1404e-03  5.6970e-03  3.2535e-01  2.9163e-03  3.4204e-03  1.1834e-03  0:04:59 1728
   273  2.9409e-03  5.1170e-03  5.6772e-03  3.1428e-01  2.9287e-03  3.4076e-03  1.1812e-03  0:03:59 1727
   274  2.9522e-03  5.1009e-03  5.6652e-03  3.0367e-01  2.9403e-03  3.3931e-03  1.1826e-03  0:03:11 1726
   275  2.9608e-03  5.0890e-03  5.6623e-03  2.9362e-01  2.9489e-03  3.3812e-03  1.1856e-03  0:02:33 1725

  iter  continuity  x-velocity  y-velocity  z-velocity      energy           k       omega     time/iter
   276  2.9681e-03  5.0790e-03  5.6680e-03  2.8405e-01  2.9564e-03  3.3700e-03  1.1930e-03  0:02:02 1724
   277  2.9714e-03  5.0706e-03  5.6817e-03  2.7503e-01  2.9598e-03  3.3584e-03  1.1957e-03  0:07:22 1723
   278  2.9680e-03  5.0626e-03  5.7014e-03  2.6663e-01  2.9565e-03  3.3484e-03  1.2061e-03  0:05:54 1722
   279  2.9631e-03  5.0552e-03  5.7304e-03  2.5865e-01  2.9516e-03  3.3398e-03  1.2091e-03  0:04:43 1721
   280  2.9540e-03  5.0496e-03  5.7665e-03  2.5079e-01  2.9426e-03  3.3277e-03  1.2060e-03  0:03:46 1720
   281  2.9395e-03  5.0450e-03  5.8097e-03  2.4348e-01  2.9281e-03  3.3125e-03  1.2111e-03  0:03:01 1719
   282  2.9145e-03  5.0414e-03  5.8527e-03  2.3703e-01  2.9032e-03  3.2963e-03  1.2133e-03  0:02:24 1718
   283  2.8893e-03  5.0378e-03  5.8996e-03  2.3101e-01  2.8780e-03  3.2786e-03  1.2144e-03  0:07:39 1717
   284  2.8610e-03  5.0359e-03  5.9491e-03  2.2522e-01  2.8498e-03  3.2610e-03  1.2174e-03  0:06:07 1716
   285  2.8298e-03  5.0368e-03  6.0023e-03  2.1958e-01  2.8186e-03  3.2421e-03  1.2200e-03  0:04:53 1715
   286  2.7979e-03  5.0435e-03  6.0580e-03  2.1419e-01  2.7868e-03  3.2241e-03  1.2264e-03  0:03:55 1714

  iter  continuity  x-velocity  y-velocity  z-velocity      energy           k       omega     time/iter
   287  2.7641e-03  5.0511e-03  6.1151e-03  2.0888e-01  2.7531e-03  3.2060e-03  1.2288e-03  0:03:08 1713
   288  2.7276e-03  5.0579e-03  6.1726e-03  2.0334e-01  2.7167e-03  3.1846e-03  1.2348e-03  0:02:30 1712
   289  2.6905e-03  5.0635e-03  6.2294e-03  1.9769e-01  2.6797e-03  3.1654e-03  1.2334e-03  0:02:00 1711
   290  2.6537e-03  5.0669e-03  6.2855e-03  1.9231e-01  2.6430e-03  3.1458e-03  1.2360e-03  0:07:18 1710
   291  2.6176e-03  5.0672e-03  6.3379e-03  1.8718e-01  2.6070e-03  3.1247e-03  1.2347e-03  0:05:50 1709
   292  2.5820e-03  5.0677e-03  6.3891e-03  1.8212e-01  2.5716e-03  3.1031e-03  1.2361e-03  0:04:40 1708
   293  2.5494e-03  5.0673e-03  6.4379e-03  1.7723e-01  2.5392e-03  3.0813e-03  1.2368e-03  0:03:44 1707
   294  2.5149e-03  5.0645e-03  6.4838e-03  1.7229e-01  2.5049e-03  3.0619e-03  1.2386e-03  0:02:59 1706
   295  2.4818e-03  5.0613e-03  6.5249e-03  1.6729e-01  2.4720e-03  3.0452e-03  1.2404e-03  0:02:23 1705
   296  2.4485e-03  5.0575e-03  6.5622e-03  1.6222e-01  2.4390e-03  3.0292e-03  1.2412e-03  0:07:35 1704
   297  2.4183e-03  5.0540e-03  6.5964e-03  1.5710e-01  2.4091e-03  3.0146e-03  1.2406e-03  0:06:04 1703

  iter  continuity  x-velocity  y-velocity  z-velocity      energy           k       omega     time/iter
   298  2.3896e-03  5.0497e-03  6.6257e-03  1.5201e-01  2.3807e-03  2.9981e-03  1.2394e-03  0:04:51 1702
   299  2.3641e-03  5.0465e-03  6.6549e-03  1.4687e-01  2.3555e-03  2.9832e-03  1.2337e-03  0:03:53 1701
   300  2.3426e-03  5.0423e-03  6.6797e-03  1.4178e-01  2.3343e-03  2.9686e-03  1.2276e-03  0:03:06 1700
   301  2.3226e-03  5.0397e-03  6.7040e-03  1.3676e-01  2.3146e-03  2.9542e-03  1.2191e-03  0:02:29 1699
   302  2.3037e-03  5.0428e-03  6.7260e-03  1.3215e-01  2.2961e-03  2.9393e-03  1.2111e-03  0:01:59 1698
   303  2.2887e-03  5.0463e-03  6.7436e-03  1.2777e-01  2.2814e-03  2.9282e-03  1.2057e-03  0:07:14 1697
   304  2.2775e-03  5.0476e-03  6.7622e-03  1.2377e-01  2.2706e-03  2.9186e-03  1.2042e-03  0:05:47 1696
   305  2.2672e-03  5.0499e-03  6.7784e-03  1.2036e-01  2.2606e-03  2.9065e-03  1.2027e-03  0:04:38 1695
   306  2.2599e-03  5.0528e-03  6.7890e-03  1.1717e-01  2.2536e-03  2.8982e-03  1.2001e-03  0:03:42 1694
   307  2.2569e-03  5.0549e-03  6.7983e-03  1.1403e-01  2.2509e-03  2.8938e-03  1.1982e-03  0:02:58 1693
   308  2.2558e-03  5.0572e-03  6.8074e-03  1.1095e-01  2.2500e-03  2.8899e-03  1.1932e-03  0:02:22 1692

  iter  continuity  x-velocity  y-velocity  z-velocity      energy           k       omega     time/iter
   309  2.2542e-03  5.0610e-03  6.8144e-03  1.0812e-01  2.2486e-03  2.8814e-03  1.1894e-03  0:07:32 1691
   310  2.2528e-03  5.0650e-03  6.8196e-03  1.0543e-01  2.2475e-03  2.8749e-03  1.1835e-03  0:06:01 1690
   311  2.2521e-03  5.0697e-03  6.8262e-03  1.0302e-01  2.2468e-03  2.8660e-03  1.1783e-03  0:04:49 1689
   312  2.2514e-03  5.0766e-03  6.8372e-03  1.0109e-01  2.2463e-03  2.8585e-03  1.1743e-03  0:03:51 1688
   313  2.2493e-03  5.0868e-03  6.8471e-03  9.9748e-02  2.2442e-03  2.8541e-03  1.1732e-03  0:03:05 1687
   314  2.2463e-03  5.1006e-03  6.8648e-03  9.8852e-02  2.2412e-03  2.8512e-03  1.1672e-03  0:02:28 1686
   315  2.2447e-03  5.1171e-03  6.8815e-03  9.8374e-02  2.2396e-03  2.8472e-03  1.1672e-03  0:07:35 1685
   316  2.2453e-03  5.1377e-03  6.9056e-03  9.8535e-02  2.2402e-03  2.8441e-03  1.1665e-03  0:06:04 1684
   317  2.2438e-03  5.1614e-03  6.9307e-03  9.9112e-02  2.2387e-03  2.8416e-03  1.1661e-03  0:04:51 1683
   318  2.2403e-03  5.1876e-03  6.9570e-03  1.0016e-01  2.2351e-03  2.8409e-03  1.1654e-03  0:03:53 1682
   319  2.2372e-03  5.2167e-03  6.9838e-03  1.0161e-01  2.2319e-03  2.8397e-03  1.1647e-03  0:03:06 1681

  iter  continuity  x-velocity  y-velocity  z-velocity      energy           k       omega     time/iter
   320  2.2322e-03  5.2478e-03  7.0079e-03  1.0379e-01  2.2268e-03  2.8401e-03  1.1619e-03  0:02:29 1680
   321  2.2282e-03  5.2815e-03  7.0359e-03  1.0653e-01  2.2226e-03  2.8433e-03  1.1588e-03  0:01:59 1679
   322  2.2246e-03  5.3196e-03  7.0638e-03  1.0977e-01  2.2188e-03  2.8491e-03  1.1569e-03  0:07:11 1678
   323  2.2219e-03  5.3661e-03  7.0959e-03  1.1319e-01  2.2160e-03  2.8542e-03  1.1578e-03  0:05:44 1677
   324  2.2191e-03  5.4144e-03  7.1259e-03  1.1672e-01  2.2129e-03  2.8571e-03  1.1613e-03  0:04:35 1676
   325  2.2192e-03  5.4629e-03  7.1583e-03  1.2028e-01  2.2128e-03  2.8625e-03  1.1626e-03  0:03:40 1675
   326  2.2203e-03  5.5143e-03  7.1910e-03  1.2365e-01  2.2136e-03  2.8696e-03  1.1653e-03  0:02:56 1674
   327  2.2249e-03  5.5674e-03  7.2238e-03  1.2690e-01  2.2179e-03  2.8746e-03  1.1668e-03  0:02:21 1673
   328  2.2344e-03  5.6242e-03  7.2586e-03  1.2972e-01  2.2272e-03  2.8789e-03  1.1700e-03  0:07:27 1672
   329  2.2421e-03  5.6846e-03  7.2932e-03  1.3218e-01  2.2346e-03  2.8818e-03  1.1651e-03  0:05:57 1671
   330  2.2485e-03  5.7469e-03  7.3317e-03  1.3423e-01  2.2407e-03  2.8804e-03  1.1611e-03  0:04:46 1670

  iter  continuity  x-velocity  y-velocity  z-velocity      energy           k       omega     time/iter
   331  2.2573e-03  5.8111e-03  7.3755e-03  1.3594e-01  2.2492e-03  2.8818e-03  1.1602e-03  0:03:48 1669
   332  2.2665e-03  5.8778e-03  7.4252e-03  1.3730e-01  2.2582e-03  2.8848e-03  1.1601e-03  0:03:03 1668
   333  2.2789e-03  5.9471e-03  7.4813e-03  1.3832e-01  2.2703e-03  2.8882e-03  1.1596e-03  0:02:26 1667
   334  2.2900e-03  6.0193e-03  7.5438e-03  1.3892e-01  2.2812e-03  2.8913e-03  1.1605e-03  0:01:57 1666
   335  2.3029e-03  6.0951e-03  7.6156e-03  1.3894e-01  2.2938e-03  2.8947e-03  1.1617e-03  0:07:06 1665
   336  2.3240e-03  6.1752e-03  7.6964e-03  1.3846e-01  2.3147e-03  2.9010e-03  1.1605e-03  0:05:41 1664
   337  2.3500e-03  6.2561e-03  7.7767e-03  1.3791e-01  2.3405e-03  2.9108e-03  1.1612e-03  0:04:33 1663
   338  2.3738e-03  6.3404e-03  7.8606e-03  1.3745e-01  2.3641e-03  2.9224e-03  1.1626e-03  0:03:38 1662
   339  2.3909e-03  6.4270e-03  7.9510e-03  1.3721e-01  2.3809e-03  2.9304e-03  1.1656e-03  0:02:54 1661
   340  2.4048e-03  6.5151e-03  8.0395e-03  1.3760e-01  2.3947e-03  2.9354e-03  1.1668e-03  0:02:19 1660
   341  2.4158e-03  6.6048e-03  8.1253e-03  1.3844e-01  2.4055e-03  2.9369e-03  1.1697e-03  0:07:23 1659

  iter  continuity  x-velocity  y-velocity  z-velocity      energy           k       omega     time/iter
   342  2.4260e-03  6.6978e-03  8.2063e-03  1.4002e-01  2.4155e-03  2.9404e-03  1.1737e-03  0:05:54 1658
   343  2.4344e-03  6.7941e-03  8.2841e-03  1.4208e-01  2.4237e-03  2.9492e-03  1.1813e-03  0:04:43 1657
   344  2.4454e-03  6.8938e-03  8.3575e-03  1.4483e-01  2.4346e-03  2.9561e-03  1.1863e-03  0:03:46 1656
   345  2.4564e-03  6.9968e-03  8.4407e-03  1.4832e-01  2.4455e-03  2.9612e-03  1.1888e-03  0:03:01 1655
   346  2.4680e-03  7.1022e-03  8.5283e-03  1.5195e-01  2.4570e-03  2.9659e-03  1.1901e-03  0:02:25 1654
   347  2.4781e-03  7.2083e-03  8.6062e-03  1.5573e-01  2.4670e-03  2.9702e-03  1.1911e-03  0:07:26 1653
   348  2.4880e-03  7.3146e-03  8.6817e-03  1.5894e-01  2.4768e-03  2.9782e-03  1.1959e-03  0:05:57 1652
   349  2.5057e-03  7.4260e-03  8.7630e-03  1.6167e-01  2.4945e-03  2.9849e-03  1.2012e-03  0:04:45 1651
   350  2.5217e-03  7.5434e-03  8.8561e-03  1.6300e-01  2.5105e-03  2.9890e-03  1.2080e-03  0:03:48 1650
   351  2.5391e-03  7.6644e-03  8.9495e-03  1.6344e-01  2.5279e-03  2.9918e-03  1.2155e-03  0:03:02 1649
   352  2.5540e-03  7.7866e-03  9.0344e-03  1.6317e-01  2.5429e-03  2.9978e-03  1.2201e-03  0:02:26 1648

  iter  continuity  x-velocity  y-velocity  z-velocity      energy           k       omega     time/iter
   353  2.5709e-03  7.9104e-03  9.1079e-03  1.6223e-01  2.5598e-03  3.0031e-03  1.2264e-03  0:07:26 1647
   354  2.5858e-03  8.0350e-03  9.1737e-03  1.6093e-01  2.5747e-03  3.0077e-03  1.2319e-03  0:05:57 1646
   355  2.5978e-03  8.1601e-03  9.2413e-03  1.5945e-01  2.5868e-03  3.0128e-03  1.2426e-03  0:04:45 1645
   356  2.6109e-03  8.2849e-03  9.3182e-03  1.5775e-01  2.5999e-03  3.0158e-03  1.2520e-03  0:03:48 1644
   357  2.6248e-03  8.4099e-03  9.3999e-03  1.5611e-01  2.6139e-03  3.0199e-03  1.2569e-03  0:03:02 1643
   358  2.6369e-03  8.5352e-03  9.4884e-03  1.5487e-01  2.6260e-03  3.0241e-03  1.2609e-03  0:02:26 1642
   359  2.6515e-03  8.6612e-03  9.5799e-03  1.5385e-01  2.6407e-03  3.0296e-03  1.2662e-03  0:01:56 1641
   360  2.6655e-03  8.7892e-03  9.6600e-03  1.5368e-01  2.6548e-03  3.0362e-03  1.2706e-03  0:07:01 1640
   361  2.6828e-03  8.9201e-03  9.7267e-03  1.5395e-01  2.6722e-03  3.0422e-03  1.2772e-03  0:05:37 1639
   362  2.7020e-03  9.0466e-03  9.7921e-03  1.5474e-01  2.6915e-03  3.0487e-03  1.2846e-03  0:04:29 1638
   363  2.7216e-03  9.1714e-03  9.8659e-03  1.5609e-01  2.7112e-03  3.0581e-03  1.2905e-03  0:03:35 1637

  iter  continuity  x-velocity  y-velocity  z-velocity      energy           k       omega     time/iter
   364  2.7390e-03  9.2986e-03  9.9404e-03  1.5799e-01  2.7288e-03  3.0671e-03  1.2986e-03  0:02:52 1636
   365  2.7640e-03  9.4305e-03  1.0028e-02  1.6072e-01  2.7540e-03  3.0803e-03  1.3041e-03  0:02:18 1635
   366  2.7897e-03  9.5683e-03  1.0150e-02  1.6236e-01  2.7800e-03  3.0940e-03  1.3080e-03  0:07:17 1634
   367  2.8098e-03  9.7092e-03  1.0252e-02  1.6393e-01  2.8003e-03  3.1092e-03  1.3121e-03  0:05:49 1633
   368  2.8234e-03  9.8507e-03  1.0334e-02  1.6572e-01  2.8140e-03  3.1232e-03  1.3230e-03  0:04:39 1632
   369  2.8404e-03  9.9932e-03  1.0400e-02  1.6790e-01  2.8312e-03  3.1361e-03  1.3306e-03  0:03:43 1631
   370  2.8598e-03  1.0137e-02  1.0466e-02  1.7040e-01  2.8507e-03  3.1476e-03  1.3347e-03  0:02:58 1630
   371  2.8827e-03  1.0285e-02  1.0522e-02  1.7255e-01  2.8738e-03  3.1624e-03  1.3383e-03  0:02:23 1629
   372  2.9099e-03  1.0434e-02  1.0567e-02  1.7540e-01  2.9012e-03  3.1734e-03  1.3457e-03  0:01:54 1628
   373  2.9448e-03  1.0585e-02  1.0604e-02  1.7869e-01  2.9362e-03  3.1823e-03  1.3524e-03  0:06:57 1627
   374  2.9813e-03  1.0737e-02  1.0598e-02  1.8249e-01  2.9729e-03  3.1960e-03  1.3596e-03  0:05:33 1626

  iter  continuity  x-velocity  y-velocity  z-velocity      energy           k       omega     time/iter
   375  3.0158e-03  1.0886e-02  1.0587e-02  1.8768e-01  3.0075e-03  3.2133e-03  1.3642e-03  0:04:26 1625
   376  3.0464e-03  1.1033e-02  1.0572e-02  1.9256e-01  3.0382e-03  3.2285e-03  1.3717e-03  0:03:33 1624
   377  3.0766e-03  1.1176e-02  1.0553e-02  1.9705e-01  3.0685e-03  3.2384e-03  1.3800e-03  0:02:50 1623
   378  3.1124e-03  1.1315e-02  1.0535e-02  2.0081e-01  3.1045e-03  3.2526e-03  1.3868e-03  0:02:16 1622
   379  3.1519e-03  1.1453e-02  1.0522e-02  2.0375e-01  3.1439e-03  3.2661e-03  1.3883e-03  0:07:13 1621
   380  3.1917e-03  1.1584e-02  1.0512e-02  2.0761e-01  3.1838e-03  3.2800e-03  1.3919e-03  0:05:46 1620
   381  3.2261e-03  1.1710e-02  1.0502e-02  2.1103e-01  3.2182e-03  3.3004e-03  1.3976e-03  0:04:37 1619
   382  3.2748e-03  1.1831e-02  1.0499e-02  2.1369e-01  3.2668e-03  3.3245e-03  1.4064e-03  0:03:41 1618
   383  3.3377e-03  1.1959e-02  1.0501e-02  2.1538e-01  3.3299e-03  3.3498e-03  1.4119e-03  0:02:57 1617
   384  3.4041e-03  1.2093e-02  1.0503e-02  2.1663e-01  3.3962e-03  3.3730e-03  1.4154e-03  0:02:21 1616
   385  3.4661e-03  1.2214e-02  1.0503e-02  2.1872e-01  3.4581e-03  3.4007e-03  1.4249e-03  0:01:53 1615

  iter  continuity  x-velocity  y-velocity  z-velocity      energy           k       omega     time/iter
   386  3.5234e-03  1.2320e-02  1.0496e-02  2.2106e-01  3.5154e-03  3.4307e-03  1.4300e-03  0:06:53 1614
   387  3.5758e-03  1.2417e-02  1.0489e-02  2.2369e-01  3.5678e-03  3.4563e-03  1.4367e-03  0:05:30 1613
   388  3.6212e-03  1.2507e-02  1.0493e-02  2.2669e-01  3.6132e-03  3.4831e-03  1.4398e-03  0:04:24 1612
   389  3.6785e-03  1.2597e-02  1.0511e-02  2.2960e-01  3.6704e-03  3.5129e-03  1.4333e-03  0:03:31 1611
   390  3.7263e-03  1.2682e-02  1.0541e-02  2.3118e-01  3.7182e-03  3.5457e-03  1.4352e-03  0:02:49 1610
   391  3.7806e-03  1.2765e-02  1.0571e-02  2.3179e-01  3.7724e-03  3.5784e-03  1.4405e-03  0:02:15 1609
   392  3.8321e-03  1.2849e-02  1.0580e-02  2.3100e-01  3.8238e-03  3.6130e-03  1.4394e-03  0:07:10 1608
   393  3.8863e-03  1.2933e-02  1.0574e-02  2.2999e-01  3.8779e-03  3.6476e-03  1.4386e-03  0:05:43 1607
   394  3.9489e-03  1.3019e-02  1.0561e-02  2.2976e-01  3.9404e-03  3.6890e-03  1.4521e-03  0:04:35 1606
   395  4.0135e-03  1.3106e-02  1.0541e-02  2.3014e-01  4.0049e-03  3.7322e-03  1.4604e-03  0:03:40 1605
   396  4.0687e-03  1.3192e-02  1.0516e-02  2.2962e-01  4.0599e-03  3.7789e-03  1.4661e-03  0:02:55 1604

  iter  continuity  x-velocity  y-velocity  z-velocity      energy           k       omega     time/iter
   397  4.1020e-03  1.3280e-02  1.0494e-02  2.2936e-01  4.0931e-03  3.8322e-03  1.4700e-03  0:02:20 1603
   398  4.1161e-03  1.3361e-02  1.0473e-02  2.2973e-01  4.1070e-03  3.8823e-03  1.4765e-03  0:07:13 1602
   399  4.1395e-03  1.3444e-02  1.0462e-02  2.3101e-01  4.1304e-03  3.9425e-03  1.4831e-03  0:05:46 1601
   400  4.1630e-03  1.3539e-02  1.0474e-02  2.3211e-01  4.1540e-03  3.9980e-03  1.4906e-03  0:04:37 1600
   401  4.1864e-03  1.3622e-02  1.0493e-02  2.3368e-01  4.1775e-03  4.0582e-03  1.4958e-03  0:03:41 1599
   402  4.2156e-03  1.3689e-02  1.0516e-02  2.3356e-01  4.2066e-03  4.1193e-03  1.5063e-03  0:02:57 1598
   403  4.2481e-03  1.3736e-02  1.0540e-02  2.3303e-01  4.2389e-03  4.1855e-03  1.5177e-03  0:02:21 1597
   404  4.2984e-03  1.3766e-02  1.0575e-02  2.3356e-01  4.2889e-03  4.2501e-03  1.5229e-03  0:01:53 1596
   405  4.3717e-03  1.3778e-02  1.0617e-02  2.3441e-01  4.3618e-03  4.3170e-03  1.5227e-03  0:06:49 1595
   406  4.4497e-03  1.3779e-02  1.0679e-02  2.3601e-01  4.4394e-03  4.3891e-03  1.5236e-03  0:05:27 1594
   407  4.5130e-03  1.3785e-02  1.0756e-02  2.3738e-01  4.5023e-03  4.4533e-03  1.5254e-03  0:04:22 1593

  iter  continuity  x-velocity  y-velocity  z-velocity      energy           k       omega     time/iter
   408  4.5652e-03  1.3792e-02  1.0838e-02  2.3847e-01  4.5542e-03  4.5138e-03  1.5305e-03  0:03:29 1592
   409  4.6127e-03  1.3814e-02  1.0918e-02  2.3924e-01  4.6014e-03  4.5731e-03  1.5316e-03  0:02:47 1591
   410  4.6760e-03  1.3854e-02  1.0997e-02  2.3948e-01  4.6645e-03  4.6335e-03  1.5422e-03  0:02:14 1590
   411  4.7436e-03  1.3902e-02  1.1085e-02  2.3815e-01  4.7317e-03  4.6861e-03  1.5468e-03  0:07:05 1589
   412  4.7401e-03  1.3944e-02  1.1188e-02  2.3690e-01  4.7280e-03  4.7310e-03  1.5518e-03  0:05:40 1588
   413  4.7533e-03  1.3990e-02  1.1304e-02  2.3705e-01  4.7412e-03  4.7652e-03  1.5598e-03  0:04:31 1587
   414  4.7577e-03  1.4059e-02  1.1458e-02  2.3835e-01  4.7459e-03  4.8087e-03  1.5723e-03  0:03:37 1586
   415  4.7527e-03  1.4139e-02  1.1633e-02  2.3947e-01  4.7411e-03  4.8382e-03  1.5845e-03  0:02:54 1585
   416  4.7483e-03  1.4212e-02  1.1812e-02  2.4197e-01  4.7367e-03  4.8798e-03  1.5870e-03  0:02:19 1584
   417  4.7542e-03  1.4277e-02  1.1997e-02  2.4687e-01  4.7426e-03  4.9236e-03  1.5884e-03  0:07:08 1583
   418  4.8053e-03  1.4331e-02  1.2194e-02  2.5315e-01  4.7933e-03  4.9773e-03  1.5924e-03  0:05:42 1582

  iter  continuity  x-velocity  y-velocity  z-velocity      energy           k       omega     time/iter
   419  4.8478e-03  1.4379e-02  1.2403e-02  2.5944e-01  4.8355e-03  5.0266e-03  1.6022e-03  0:04:33 1581
   420  4.8769e-03  1.4422e-02  1.2627e-02  2.6474e-01  4.8641e-03  5.0667e-03  1.6119e-03  0:03:38 1580
   421  4.9108e-03  1.4456e-02  1.2840e-02  2.6988e-01  4.8976e-03  5.1111e-03  1.6238e-03  0:02:55 1579
   422  4.9459e-03  1.4490e-02  1.3038e-02  2.7246e-01  4.9323e-03  5.1451e-03  1.6400e-03  0:02:20 1578
   423  4.9661e-03  1.4519e-02  1.3236e-02  2.7386e-01  4.9521e-03  5.1900e-03  1.6523e-03  0:01:52 1577
   424  4.9783e-03  1.4545e-02  1.3417e-02  2.7649e-01  4.9641e-03  5.2244e-03  1.6530e-03  0:06:44 1576
   425  4.9817e-03  1.4567e-02  1.3582e-02  2.7965e-01  4.9675e-03  5.2508e-03  1.6530e-03  0:05:23 1575
   426  4.9858e-03  1.4594e-02  1.3780e-02  2.8256e-01  4.9717e-03  5.2862e-03  1.6608e-03  0:04:19 1574
   427  5.0090e-03  1.4636e-02  1.4031e-02  2.8709e-01  4.9950e-03  5.3183e-03  1.6649e-03  0:03:27 1573
   428  5.0484e-03  1.4694e-02  1.4310e-02  2.9247e-01  5.0345e-03  5.3641e-03  1.6603e-03  0:02:45 1572
   429  5.1085e-03  1.4763e-02  1.4607e-02  3.0010e-01  5.0944e-03  5.4053e-03  1.6686e-03  0:02:12 1571

  iter  continuity  x-velocity  y-velocity  z-velocity      energy           k       omega     time/iter
   430  5.2053e-03  1.4834e-02  1.4896e-02  3.0747e-01  5.1909e-03  5.4363e-03  1.6707e-03  0:01:46 1570
   431  5.2823e-03  1.4910e-02  1.5154e-02  3.1166e-01  5.2674e-03  5.4751e-03  1.6751e-03  0:06:38 1569
   432  5.3236e-03  1.5000e-02  1.5370e-02  3.1242e-01  5.3081e-03  5.5133e-03  1.6760e-03  0:05:18 1568
   433  5.3313e-03  1.5086e-02  1.5563e-02  3.1404e-01  5.3154e-03  5.5527e-03  1.6756e-03  0:04:15 1567
   434  5.3198e-03  1.5160e-02  1.5747e-02  3.1536e-01  5.3037e-03  5.5901e-03  1.6756e-03  0:03:24 1566
   435  5.2967e-03  1.5224e-02  1.5942e-02  3.1643e-01  5.2805e-03  5.6257e-03  1.6862e-03  0:02:43 1565
   436  5.2680e-03  1.5275e-02  1.6158e-02  3.1908e-01  5.2519e-03  5.6621e-03  1.6984e-03  0:02:10 1564
   437  5.2513e-03  1.5316e-02  1.6417e-02  3.2249e-01  5.2353e-03  5.7072e-03  1.7104e-03  0:06:57 1563
   438  5.2490e-03  1.5365e-02  1.6776e-02  3.2682e-01  5.2331e-03  5.7589e-03  1.7243e-03  0:05:33 1562
   439  5.2819e-03  1.5429e-02  1.7243e-02  3.3255e-01  5.2661e-03  5.8172e-03  1.7322e-03  0:04:26 1561
   440  5.3374e-03  1.5506e-02  1.7740e-02  3.3747e-01  5.3215e-03  5.8747e-03  1.7490e-03  0:03:33 1560

  iter  continuity  x-velocity  y-velocity  z-velocity      energy           k       omega     time/iter
   441  5.3945e-03  1.5594e-02  1.8197e-02  3.4285e-01  5.3783e-03  5.9362e-03  1.7623e-03  0:02:50 1559
   442  5.4153e-03  1.5699e-02  1.8564e-02  3.4365e-01  5.3985e-03  6.0080e-03  1.7693e-03  0:07:28 1558
   443  5.3507e-03  1.5824e-02  1.8836e-02  3.4160e-01  5.3332e-03  6.0767e-03  1.7642e-03  0:05:58 1557
   444  5.2387e-03  1.5974e-02  1.9003e-02  3.3669e-01  5.2207e-03  6.1514e-03  1.7665e-03  0:04:46 1556
   445  5.1232e-03  1.6117e-02  1.9094e-02  3.3097e-01  5.1050e-03  6.2317e-03  1.7829e-03  0:03:49 1555
   446  5.0033e-03  1.6245e-02  1.9163e-02  3.2553e-01  4.9848e-03  6.3050e-03  1.7926e-03  0:03:03 1554
   447  4.9038e-03  1.6344e-02  1.9263e-02  3.2090e-01  4.8851e-03  6.3981e-03  1.8038e-03  0:02:26 1553
   448  4.8166e-03  1.6410e-02  1.9432e-02  3.1708e-01  4.7978e-03  6.4724e-03  1.8312e-03  0:07:07 1552
   449  4.7542e-03  1.6440e-02  1.9698e-02  3.1480e-01  4.7352e-03  6.5185e-03  1.8479e-03  0:05:42 1551
   450  4.7001e-03  1.6446e-02  2.0073e-02  3.1243e-01  4.6808e-03  6.5547e-03  1.8619e-03  0:04:33 1550
   451  4.6277e-03  1.6449e-02  2.0525e-02  3.1262e-01  4.6083e-03  6.6089e-03  1.8832e-03  0:03:38 1549

  iter  continuity  x-velocity  y-velocity  z-velocity      energy           k       omega     time/iter
   452  4.5273e-03  1.6452e-02  2.0966e-02  3.1330e-01  4.5077e-03  6.6742e-03  1.8918e-03  0:02:55 1548
   453  4.4125e-03  1.6456e-02  2.1327e-02  3.1536e-01  4.3927e-03  6.7184e-03  1.9008e-03  0:02:20 1547
   454  4.2876e-03  1.6468e-02  2.1587e-02  3.1777e-01  4.2675e-03  6.7556e-03  1.9095e-03  0:01:52 1546
   455  4.1744e-03  1.6488e-02  2.1758e-02  3.1875e-01  4.1540e-03  6.8061e-03  1.9192e-03  0:06:38 1545
   456  4.0856e-03  1.6515e-02  2.1840e-02  3.1940e-01  4.0651e-03  6.8314e-03  1.9245e-03  0:05:18 1544
   457  4.0254e-03  1.6533e-02  2.1865e-02  3.2147e-01  4.0049e-03  6.8491e-03  1.9399e-03  0:04:15 1543
   458  3.9803e-03  1.6538e-02  2.1895e-02  3.2441e-01  3.9599e-03  6.8872e-03  1.9568e-03  0:03:23 1542
   459  3.9293e-03  1.6525e-02  2.1965e-02  3.2857e-01  3.9092e-03  6.9287e-03  1.9635e-03  0:02:43 1541
   460  3.8650e-03  1.6479e-02  2.2087e-02  3.3301e-01  3.8450e-03  6.9590e-03  1.9760e-03  0:02:10 1540
   461  3.7831e-03  1.6396e-02  2.2252e-02  3.3757e-01  3.7632e-03  6.9878e-03  1.9830e-03  0:06:52 1539
   462  3.7041e-03  1.6280e-02  2.2450e-02  3.4212e-01  3.6841e-03  7.0220e-03  1.9896e-03  0:05:29 1538

  iter  continuity  x-velocity  y-velocity  z-velocity      energy           k       omega     time/iter
   463  3.6415e-03  1.6141e-02  2.2663e-02  3.4622e-01  3.6215e-03  7.0571e-03  1.9989e-03  0:04:23 1537
   464  3.6057e-03  1.5992e-02  2.2870e-02  3.5883e-01  3.5857e-03  7.0552e-03  2.0179e-03  0:03:30 1536
   465  3.6111e-03  1.5838e-02  2.3058e-02  3.5406e-01  3.5911e-03  7.0672e-03  2.0249e-03  0:02:48 1535
   466  3.6487e-03  1.5689e-02  2.3210e-02  3.5510e-01  3.6288e-03  7.1038e-03  2.0361e-03  0:02:14 1534
   467  3.7194e-03  1.5556e-02  2.3298e-02  3.5593e-01  3.6997e-03  7.1136e-03  2.0380e-03  0:01:48 1533
   468  3.8183e-03  1.5437e-02  2.3343e-02  3.5612e-01  3.7988e-03  7.1211e-03  2.0553e-03  0:06:32 1532
   469  3.9395e-03  1.5328e-02  2.3380e-02  3.5375e-01  3.9203e-03  7.1553e-03  2.0701e-03  0:05:14 1531
   470  4.0820e-03  1.5220e-02  2.3425e-02  3.5136e-01  4.0631e-03  7.1727e-03  2.0748e-03  0:04:11 1530
   471  4.2232e-03  1.5102e-02  2.3483e-02  3.4904e-01  4.2045e-03  7.1969e-03  2.0899e-03  0:03:20 1529
   472  4.3685e-03  1.4973e-02  2.3555e-02  3.4687e-01  4.3501e-03  7.2282e-03  2.1032e-03  0:02:40 1528
   473  4.5102e-03  1.4848e-02  2.3643e-02  3.4421e-01  4.4920e-03  7.2447e-03  2.1152e-03  0:02:08 1527

  iter  continuity  x-velocity  y-velocity  z-velocity      energy           k       omega     time/iter
   474  4.6406e-03  1.4732e-02  2.3749e-02  3.4088e-01  4.6226e-03  7.2845e-03  2.1377e-03  0:06:48 1526
   475  4.7576e-03  1.4618e-02  2.3875e-02  3.3736e-01  4.7398e-03  7.3384e-03  2.1536e-03  0:05:26 1525
   476  4.8660e-03  1.4506e-02  2.4005e-02  3.3499e-01  4.8483e-03  7.3557e-03  2.1784e-03  0:04:21 1524
   477  4.9776e-03  1.4403e-02  2.4137e-02  3.3302e-01  4.9600e-03  7.3658e-03  2.1985e-03  0:03:28 1523
   478  5.0982e-03  1.4312e-02  2.4270e-02  3.3097e-01  5.0807e-03  7.4195e-03  2.2166e-03  0:02:47 1522
   479  5.2297e-03  1.4235e-02  2.4409e-02  3.2844e-01  5.2122e-03  7.4433e-03  2.2386e-03  0:02:13 1521
   480  5.3718e-03  1.4170e-02  2.4552e-02  3.2687e-01  5.3543e-03  7.4612e-03  2.2582e-03  0:06:50 1520
   481  5.5157e-03  1.4116e-02  2.4690e-02  3.2655e-01  5.4982e-03  7.4722e-03  2.2662e-03  0:05:28 1519
   482  5.6654e-03  1.4070e-02  2.4835e-02  3.2745e-01  5.6478e-03  7.5286e-03  2.2960e-03  0:04:22 1518
   483  5.8097e-03  1.4030e-02  2.4993e-02  3.2981e-01  5.7921e-03  7.5756e-03  2.3215e-03  0:03:30 1517
   484  5.9453e-03  1.3992e-02  2.5159e-02  3.3412e-01  5.9276e-03  7.5953e-03  2.3426e-03  0:02:48 1516

  iter  continuity  x-velocity  y-velocity  z-velocity      energy           k       omega     time/iter
   485  6.0717e-03  1.3955e-02  2.5310e-02  3.3696e-01  6.0540e-03  7.6002e-03  2.3558e-03  0:02:14 1515
   486  6.1879e-03  1.3918e-02  2.5464e-02  3.4059e-01  6.1701e-03  7.6430e-03  2.3646e-03  0:01:47 1514
   487  6.2900e-03  1.3880e-02  2.5622e-02  3.4581e-01  6.2721e-03  7.6705e-03  2.3720e-03  0:06:28 1513
   488  6.3767e-03  1.3843e-02  2.5798e-02  3.5230e-01  6.3588e-03  7.6740e-03  2.3765e-03  0:05:10 1512
   489  6.4482e-03  1.3807e-02  2.6002e-02  3.5794e-01  6.4303e-03  7.6783e-03  2.3826e-03  0:04:08 1511
   490  6.5030e-03  1.3777e-02  2.6218e-02  3.6302e-01  6.4852e-03  7.6857e-03  2.3877e-03  0:03:18 1510
   491  6.5400e-03  1.3755e-02  2.6436e-02  3.6733e-01  6.5223e-03  7.6831e-03  2.3864e-03  0:02:39 1509
   492  6.5579e-03  1.3737e-02  2.6662e-02  3.7135e-01  6.5402e-03  7.6848e-03  2.3876e-03  0:02:07 1508
   493  6.5598e-03  1.3724e-02  2.6886e-02  3.7539e-01  6.5423e-03  7.6845e-03  2.3894e-03  0:06:43 1507
   494  6.5514e-03  1.3718e-02  2.7136e-02  3.8118e-01  6.5340e-03  7.6683e-03  2.3897e-03  0:05:22 1506
   495  6.5213e-03  1.3719e-02  2.7388e-02  3.8962e-01  6.5041e-03  7.6627e-03  2.3860e-03  0:04:17 1505

  iter  continuity  x-velocity  y-velocity  z-velocity      energy           k       omega     time/iter
   496  6.4771e-03  1.3720e-02  2.7640e-02  4.0019e-01  6.4603e-03  7.6491e-03  2.3919e-03  0:03:26 1504
   497  6.4248e-03  1.3719e-02  2.7883e-02  4.1374e-01  6.4082e-03  7.6307e-03  2.3925e-03  0:02:45 1503
   498  6.3652e-03  1.3718e-02  2.8114e-02  4.3038e-01  6.3490e-03  7.6071e-03  2.3897e-03  0:02:12 1502
   499  6.2889e-03  1.3719e-02  2.8327e-02  4.5020e-01  6.2731e-03  7.5936e-03  2.3828e-03  0:01:45 1501
   500  6.1996e-03  1.3717e-02  2.8519e-02  4.7192e-01  6.1841e-03  7.5853e-03  2.3841e-03  0:06:24 1500
   501  6.1079e-03  1.3717e-02  2.8696e-02  4.9469e-01  6.0929e-03  7.5719e-03  2.3838e-03  0:05:07 1499
   502  6.0132e-03  1.3718e-02  2.8862e-02  5.1989e-01  5.9987e-03  7.5582e-03  2.3815e-03  0:04:05 1498
   503  5.9147e-03  1.3722e-02  2.9013e-02  5.4489e-01  5.9006e-03  7.5397e-03  2.3800e-03  0:03:16 1497
   504  5.8158e-03  1.3728e-02  2.9133e-02  5.6932e-01  5.8021e-03  7.5006e-03  2.3756e-03  0:02:37 1496
   505  5.7147e-03  1.3733e-02  2.9207e-02  5.9392e-01  5.7015e-03  7.4659e-03  2.3746e-03  0:02:05 1495
   506  5.6115e-03  1.3743e-02  2.9230e-02  6.2330e-01  5.5988e-03  7.4155e-03  2.3720e-03  0:06:39 1494

  iter  continuity  x-velocity  y-velocity  z-velocity      energy           k       omega     time/iter
   507  5.5020e-03  1.3749e-02  2.9213e-02  6.4307e-01  5.4898e-03  7.3820e-03  2.3648e-03  0:05:19 1493
   508  5.4053e-03  1.3753e-02  2.9173e-02  6.5233e-01  5.3935e-03  7.3528e-03  2.3545e-03  0:04:15 1492
   509  5.3273e-03  1.3746e-02  2.9105e-02  6.5494e-01  5.3157e-03  7.3154e-03  2.3510e-03  0:03:24 1491
   510  5.2735e-03  1.3720e-02  2.9008e-02  6.5028e-01  5.2622e-03  7.2799e-03  2.3416e-03  0:02:43 1490
   511  5.2478e-03  1.3666e-02  2.8881e-02  6.4386e-01  5.2366e-03  7.2363e-03  2.3326e-03  0:02:10 1489
   512  5.2476e-03  1.3577e-02  2.8733e-02  6.3697e-01  5.2363e-03  7.1918e-03  2.3133e-03  0:01:44 1488
   513  5.2754e-03  1.3471e-02  2.8586e-02  6.2993e-01  5.2638e-03  7.1877e-03  2.2942e-03  0:06:21 1487
   514  5.2946e-03  1.3371e-02  2.8450e-02  6.3471e-01  5.2825e-03  7.1958e-03  2.2788e-03  0:05:04 1486
   515  5.2967e-03  1.3297e-02  2.8326e-02  6.4707e-01  5.2839e-03  7.1843e-03  2.2565e-03  0:04:03 1485
   516  5.2871e-03  1.3221e-02  2.8213e-02  6.6568e-01  5.2736e-03  7.1598e-03  2.2383e-03  0:03:15 1484
   517  5.2804e-03  1.3142e-02  2.8112e-02  6.8293e-01  5.2663e-03  7.1144e-03  2.2200e-03  0:02:36 1483

  iter  continuity  x-velocity  y-velocity  z-velocity      energy           k       omega     time/iter
   518  5.2917e-03  1.3060e-02  2.8016e-02  6.9592e-01  5.2770e-03  7.0668e-03  2.2044e-03  0:02:04 1482
   519  5.3222e-03  1.2981e-02  2.7923e-02  7.0595e-01  5.3070e-03  7.0295e-03  2.1880e-03  0:06:36 1481
   520  5.3878e-03  1.2906e-02  2.7840e-02  7.1017e-01  5.3721e-03  7.0116e-03  2.1859e-03  0:05:16 1480
   521  5.4608e-03  1.2834e-02  2.7748e-02  7.1194e-01  5.4446e-03  6.9874e-03  2.1831e-03  0:04:13 1479
   522  5.5467e-03  1.2767e-02  2.7634e-02  7.2931e-01  5.5303e-03  6.9608e-03  2.1829e-03  0:03:22 1478
   523  5.6515e-03  1.2719e-02  2.7515e-02  7.5174e-01  5.6350e-03  6.9298e-03  2.1818e-03  0:02:42 1477
   524  5.7647e-03  1.2692e-02  2.7401e-02  7.6950e-01  5.7480e-03  6.9001e-03  2.1739e-03  0:02:09 1476
   525  5.8981e-03  1.2682e-02  2.7294e-02  7.7243e-01  5.8810e-03  6.8706e-03  2.1662e-03  0:06:38 1475
   526  6.0401e-03  1.2683e-02  2.7196e-02  7.7473e-01  6.0223e-03  6.8314e-03  2.1560e-03  0:05:18 1474
   527  6.1783e-03  1.2703e-02  2.7129e-02  7.7963e-01  6.1597e-03  6.7976e-03  2.1456e-03  0:04:15 1473
   528  6.2887e-03  1.2735e-02  2.7108e-02  8.0346e-01  6.2691e-03  6.7630e-03  2.1389e-03  0:03:24 1472

  iter  continuity  x-velocity  y-velocity  z-velocity      energy           k       omega     time/iter
   529  6.3652e-03  1.2770e-02  2.7145e-02  8.3594e-01  6.3445e-03  6.7185e-03  2.1270e-03  0:02:43 1471
   530  6.4027e-03  1.2806e-02  2.7226e-02  8.7174e-01  6.3809e-03  6.6556e-03  2.1191e-03  0:02:10 1470
   531  6.4067e-03  1.2846e-02  2.7341e-02  8.9264e-01  6.3840e-03  6.5869e-03  2.1173e-03  0:01:44 1469
   532  6.3979e-03  1.2905e-02  2.7471e-02  9.0983e-01  6.3745e-03  6.5199e-03  2.1087e-03  0:06:17 1468
   533  6.3604e-03  1.2925e-02  2.7597e-02  9.1515e-01  6.3363e-03  6.4530e-03  2.0968e-03  0:05:01 1467
   534  6.3109e-03  1.2936e-02  2.7709e-02  9.2953e-01  6.2863e-03  6.3945e-03  2.0852e-03  0:04:01 1466
   535  6.2736e-03  1.2975e-02  2.7795e-02  9.2700e-01  6.2485e-03  6.3618e-03  2.0745e-03  0:03:12 1465
   536  6.2424e-03  1.3008e-02  2.7842e-02  9.1180e-01  6.2167e-03  6.3478e-03  2.0621e-03  0:02:34 1464
   537  6.2135e-03  1.3041e-02  2.7851e-02  8.7922e-01  6.1873e-03  6.3539e-03  2.0479e-03  0:02:03 1463
   538  6.1947e-03  1.3093e-02  2.7807e-02  8.4112e-01  6.1680e-03  6.3615e-03  2.0295e-03  0:06:31 1462
   539  6.2070e-03  1.3156e-02  2.7706e-02  7.9818e-01  6.1801e-03  6.3740e-03  2.0091e-03  0:05:12 1461

  iter  continuity  x-velocity  y-velocity  z-velocity      energy           k       omega     time/iter
   540  6.2588e-03  1.3216e-02  2.7549e-02  7.5122e-01  6.2317e-03  6.3937e-03  1.9966e-03  0:04:10 1460
   541  6.3739e-03  1.3280e-02  2.7361e-02  7.1093e-01  6.3466e-03  6.4086e-03  1.9927e-03  0:03:20 1459
   542  6.5222e-03  1.3337e-02  2.7172e-02  6.7394e-01  6.4947e-03  6.4009e-03  1.9966e-03  0:02:40 1458
   543  6.5909e-03  1.3370e-02  2.6982e-02  6.3850e-01  6.5630e-03  6.3796e-03  2.0033e-03  0:02:08 1457
   544  6.5781e-03  1.3389e-02  2.6749e-02  6.1726e-01  6.5495e-03  6.3587e-03  2.0052e-03  0:06:33 1456
   545  6.5138e-03  1.3381e-02  2.6432e-02  6.0821e-01  6.4846e-03  6.3283e-03  2.0019e-03  0:05:14 1455
   546  6.4402e-03  1.3366e-02  2.6055e-02  6.0712e-01  6.4107e-03  6.2778e-03  1.9919e-03  0:04:11 1454
   547  6.3619e-03  1.3317e-02  2.5694e-02  6.0928e-01  6.3323e-03  6.2167e-03  1.9804e-03  0:03:21 1453
   548  6.2885e-03  1.3254e-02  2.5343e-02  6.3375e-01  6.2591e-03  6.1507e-03  1.9584e-03  0:02:41 1452
   549  6.2113e-03  1.3175e-02  2.4980e-02  6.6730e-01  6.1821e-03  6.0874e-03  1.9344e-03  0:02:08 1451
   550  6.1591e-03  1.3093e-02  2.4615e-02  6.9919e-01  6.1302e-03  6.0365e-03  1.9029e-03  0:01:43 1450

  iter  continuity  x-velocity  y-velocity  z-velocity      energy           k       omega     time/iter
   551  6.1162e-03  1.3018e-02  2.4268e-02  7.1861e-01  6.0871e-03  5.9739e-03  1.8741e-03  0:06:12 1449
   552  6.0780e-03  1.2992e-02  2.3896e-02  7.1334e-01  6.0487e-03  5.8972e-03  1.8518e-03  0:04:57 1448
   553  6.0667e-03  1.2988e-02  2.3462e-02  6.9536e-01  6.0368e-03  5.8177e-03  1.8265e-03  0:03:58 1447
   554  6.0789e-03  1.3015e-02  2.2996e-02  6.6967e-01  6.0483e-03  5.7366e-03  1.8026e-03  0:03:10 1446
   555  6.0972e-03  1.3097e-02  2.2546e-02  6.6320e-01  6.0661e-03  5.6472e-03  1.7838e-03  0:02:32 1445
   556  6.1240e-03  1.3243e-02  2.2119e-02  6.6754e-01  6.0921e-03  5.5561e-03  1.7675e-03  0:02:01 1444
   557  6.0856e-03  1.3290e-02  2.1716e-02  6.6938e-01  6.0532e-03  5.4551e-03  1.7507e-03  0:01:37 1443
   558  6.0026e-03  1.3215e-02  2.1288e-02  7.0447e-01  5.9697e-03  5.3374e-03  1.7371e-03  0:06:06 1442
   559  5.9327e-03  1.3116e-02  2.0798e-02  7.3152e-01  5.8994e-03  5.2155e-03  1.7274e-03  0:04:53 1441
   560  5.8861e-03  1.3021e-02  2.0248e-02  7.3170e-01  5.8525e-03  5.0971e-03  1.7181e-03  0:03:54 1440
   561  5.8196e-03  1.2959e-02  1.9650e-02  7.1046e-01  5.7859e-03  4.9811e-03  1.7049e-03  0:03:07 1439

  iter  continuity  x-velocity  y-velocity  z-velocity      energy           k       omega     time/iter
   562  5.7570e-03  1.2957e-02  1.9034e-02  6.7364e-01  5.7236e-03  4.8757e-03  1.6909e-03  0:02:30 1438
   563  5.7316e-03  1.2968e-02  1.8442e-02  6.2655e-01  5.6989e-03  4.7877e-03  1.6786e-03  0:02:00 1437
   564  5.7304e-03  1.2970e-02  1.7889e-02  5.8277e-01  5.6985e-03  4.7152e-03  1.6658e-03  0:06:23 1436
   565  5.7350e-03  1.2971e-02  1.7362e-02  5.4543e-01  5.7040e-03  4.6646e-03  1.6579e-03  0:05:06 1435
   566  5.7299e-03  1.2934e-02  1.6815e-02  5.2615e-01  5.6999e-03  4.6202e-03  1.6544e-03  0:04:05 1434
   567  5.7181e-03  1.2878e-02  1.6349e-02  5.3177e-01  5.6893e-03  4.5875e-03  1.6469e-03  0:03:16 1433
   568  5.6873e-03  1.2809e-02  1.5956e-02  5.4215e-01  5.6595e-03  4.5567e-03  1.6343e-03  0:02:36 1432
   569  5.6656e-03  1.2754e-02  1.5633e-02  5.5670e-01  5.6388e-03  4.5203e-03  1.6229e-03  0:02:05 1431
   570  5.6250e-03  1.2692e-02  1.5376e-02  5.6946e-01  5.5990e-03  4.4843e-03  1.6113e-03  0:01:40 1430
   571  5.5592e-03  1.2624e-02  1.5166e-02  5.7258e-01  5.5336e-03  4.4529e-03  1.6006e-03  0:06:06 1429
   572  5.4922e-03  1.2564e-02  1.4961e-02  5.6165e-01  5.4667e-03  4.4266e-03  1.5822e-03  0:04:52 1428

  iter  continuity  x-velocity  y-velocity  z-velocity      energy           k       omega     time/iter
   573  5.4150e-03  1.2512e-02  1.4772e-02  5.4803e-01  5.3894e-03  4.4018e-03  1.5703e-03  0:03:54 1427
   574  5.3315e-03  1.2490e-02  1.4539e-02  5.0404e-01  5.3055e-03  4.3813e-03  1.5581e-03  0:03:07 1426
   575  5.2439e-03  1.2495e-02  1.4255e-02  4.7134e-01  5.2176e-03  4.3575e-03  1.5476e-03  0:02:29 1425
   576  5.1612e-03  1.2515e-02  1.3950e-02  4.5435e-01  5.1347e-03  4.3368e-03  1.5329e-03  0:01:59 1424
   577  5.0893e-03  1.2539e-02  1.3642e-02  4.4638e-01  5.0627e-03  4.3172e-03  1.5183e-03  0:06:20 1423
   578  5.0352e-03  1.2548e-02  1.3348e-02  4.4194e-01  5.0086e-03  4.3019e-03  1.5131e-03  0:05:04 1422
   579  4.9923e-03  1.2516e-02  1.3064e-02  4.3495e-01  4.9659e-03  4.2899e-03  1.5045e-03  0:04:03 1421
   580  4.9521e-03  1.2424e-02  1.2796e-02  4.4143e-01  4.9263e-03  4.2838e-03  1.5008e-03  0:03:14 1420
   581  4.9013e-03  1.2325e-02  1.2544e-02  4.4618e-01  4.8762e-03  4.2811e-03  1.4914e-03  0:02:35 1419
   582  4.8326e-03  1.2239e-02  1.2310e-02  4.4346e-01  4.8082e-03  4.2667e-03  1.4835e-03  0:02:04 1418
   583  4.7711e-03  1.2164e-02  1.2108e-02  4.3658e-01  4.7473e-03  4.2497e-03  1.4738e-03  0:06:23 1417

  iter  continuity  x-velocity  y-velocity  z-velocity      energy           k       omega     time/iter
   584  4.7101e-03  1.2091e-02  1.1933e-02  4.2439e-01  4.6871e-03  4.2223e-03  1.4632e-03  0:05:06 1416
   585  4.6036e-03  1.2004e-02  1.1783e-02  4.1133e-01  4.5810e-03  4.1854e-03  1.4541e-03  0:04:05 1415
   586  4.4592e-03  1.1942e-02  1.1646e-02  3.9856e-01  4.4375e-03  4.1523e-03  1.4432e-03  0:03:15 1414
   587  4.2820e-03  1.1879e-02  1.1520e-02  3.9057e-01  4.2611e-03  4.1290e-03  1.4290e-03  0:02:36 1413
   588  4.0819e-03  1.1796e-02  1.1400e-02  3.8178e-01  4.0616e-03  4.1066e-03  1.4147e-03  0:02:05 1412
   589  3.8525e-03  1.1675e-02  1.1275e-02  3.8376e-01  3.8326e-03  4.0797e-03  1.4037e-03  0:01:40 1411
   590  3.5797e-03  1.1524e-02  1.1170e-02  3.8935e-01  3.5598e-03  4.0542e-03  1.3842e-03  0:06:02 1410
   591  3.2596e-03  1.1356e-02  1.1062e-02  4.0190e-01  3.2396e-03  4.0323e-03  1.3662e-03  0:04:49 1409
   592  2.8956e-03  1.1176e-02  1.0924e-02  4.2757e-01  2.8749e-03  4.0080e-03  1.3489e-03  0:03:51 1408
   593  2.5598e-03  1.0993e-02  1.0748e-02  4.5437e-01  2.5383e-03  3.9840e-03  1.3356e-03  0:03:05 1407
   594  2.2814e-03  1.0807e-02  1.0493e-02  4.6385e-01  2.2587e-03  3.9652e-03  1.3176e-03  0:02:28 1406

  iter  continuity  x-velocity  y-velocity  z-velocity      energy           k       omega     time/iter
   595  2.0628e-03  1.0631e-02  1.0180e-02  4.6089e-01  2.0388e-03  3.9525e-03  1.3050e-03  0:01:58 1405
   596  1.9177e-03  1.0466e-02  9.8612e-03  4.3717e-01  1.8928e-03  3.9419e-03  1.2896e-03  0:06:15 1404
   597  1.8530e-03  1.0319e-02  9.5355e-03  4.1382e-01  1.8276e-03  3.9313e-03  1.2746e-03  0:05:00 1403
   598  1.8658e-03  1.0187e-02  9.2053e-03  3.9590e-01  1.8411e-03  3.9245e-03  1.2628e-03  0:04:00 1402
   599  1.9363e-03  1.0066e-02  8.8697e-03  3.8140e-01  1.9127e-03  3.9114e-03  1.2483e-03  0:03:12 1401
   600  2.0368e-03  9.9489e-03  8.5495e-03  3.6847e-01  2.0145e-03  3.8953e-03  1.2347e-03  0:02:33 1400
   601  2.1468e-03  9.8329e-03  8.2629e-03  3.5350e-01  2.1257e-03  3.8788e-03  1.2254e-03  0:02:03 1399
   602  2.2574e-03  9.7159e-03  8.0192e-03  3.3967e-01  2.2372e-03  3.8583e-03  1.2158e-03  0:01:38 1398
   603  2.3636e-03  9.5969e-03  7.8138e-03  3.2748e-01  2.3441e-03  3.8409e-03  1.2031e-03  0:05:58 1397
   604  2.4551e-03  9.4748e-03  7.6479e-03  3.1831e-01  2.4361e-03  3.8258e-03  1.1905e-03  0:04:46 1396
   605  2.5346e-03  9.3530e-03  7.5180e-03  3.0595e-01  2.5160e-03  3.8088e-03  1.1794e-03  0:03:49 1395

  iter  continuity  x-velocity  y-velocity  z-velocity      energy           k       omega     time/iter
   606  2.5945e-03  9.2234e-03  7.4143e-03  2.9901e-01  2.5764e-03  3.7900e-03  1.1670e-03  0:03:03 1394
   607  2.6362e-03  9.0902e-03  7.3234e-03  2.9458e-01  2.6186e-03  3.7666e-03  1.1556e-03  0:02:26 1393
   608  2.6645e-03  8.9686e-03  7.2415e-03  2.7718e-01  2.6473e-03  3.7421e-03  1.1438e-03  0:01:57 1392
   609  2.6859e-03  8.8591e-03  7.1628e-03  2.6515e-01  2.6691e-03  3.7133e-03  1.1324e-03  0:01:33 1391
   610  2.6999e-03  8.7575e-03  7.0953e-03  2.5831e-01  2.6836e-03  3.6839e-03  1.1213e-03  0:05:53 1390
   611  2.7093e-03  8.6618e-03  7.0307e-03  2.5649e-01  2.6934e-03  3.6572e-03  1.1093e-03  0:04:42 1389
   612  2.7176e-03  8.5723e-03  6.9708e-03  2.5760e-01  2.7023e-03  3.6392e-03  1.0991e-03  0:03:45 1388
   613  2.7247e-03  8.4842e-03  6.9168e-03  2.6047e-01  2.7098e-03  3.6245e-03  1.0856e-03  0:03:00 1387
   614  2.7307e-03  8.3966e-03  6.8515e-03  2.6595e-01  2.7164e-03  3.6068e-03  1.0720e-03  0:02:24 1386
   615  2.7327e-03  8.3096e-03  6.7952e-03  2.7128e-01  2.7189e-03  3.5889e-03  1.0601e-03  0:01:55 1385
   616  2.7280e-03  8.2400e-03  6.7452e-03  2.8237e-01  2.7150e-03  3.5676e-03  1.0484e-03  0:06:09 1384

  iter  continuity  x-velocity  y-velocity  z-velocity      energy           k       omega     time/iter
   617  2.7220e-03  8.1743e-03  6.6893e-03  2.9535e-01  2.7096e-03  3.5462e-03  1.0352e-03  0:04:55 1383
   618  2.7088e-03  8.1064e-03  6.6202e-03  3.0374e-01  2.6968e-03  3.5200e-03  1.0200e-03  0:03:56 1382
   619  2.6831e-03  8.0352e-03  6.5353e-03  3.0948e-01  2.6715e-03  3.4922e-03  1.0062e-03  0:03:08 1381
   620  2.6432e-03  7.9606e-03  6.4384e-03  3.1351e-01  2.6319e-03  3.4686e-03  9.9053e-04  0:02:31 1380
   621  2.5901e-03  7.8840e-03  6.3238e-03  3.0909e-01  2.5790e-03  3.4481e-03  9.7558e-04  0:02:00 1379
   622  2.5253e-03  7.8083e-03  6.1937e-03  3.0179e-01  2.5144e-03  3.4292e-03  9.5892e-04  0:01:36 1378
   623  2.4483e-03  7.7357e-03  6.0646e-03  2.8783e-01  2.4375e-03  3.4083e-03  9.4341e-04  0:05:52 1377
   624  2.3582e-03  7.6692e-03  5.9207e-03  2.7827e-01  2.3475e-03  3.3874e-03  9.3089e-04  0:04:42 1376
   625  2.2562e-03  7.6072e-03  5.7671e-03  2.7254e-01  2.2456e-03  3.3654e-03  9.1629e-04  0:03:45 1375
   626  2.1433e-03  7.5475e-03  5.6089e-03  2.6858e-01  2.1328e-03  3.3436e-03  9.0198e-04  0:03:00 1374
[...]
  1838  5.3765e-03  6.9904e-03  1.4517e-02  7.3349e-01  5.3670e-03  3.7095e-03  1.2613e-03  0:00:07  162
  1839  5.3789e-03  6.9274e-03  1.4450e-02  7.3437e-01  5.3690e-03  3.6859e-03  1.2602e-03  0:00:06  161
  1840  5.4152e-03  6.7941e-03  1.4313e-02  7.3552e-01  5.4049e-03  3.6761e-03  1.2592e-03  0:00:05  160
  1841  5.3191e-03  6.6904e-03  1.4169e-02  7.3571e-01  5.3088e-03  3.6774e-03  1.2572e-03  0:00:04  159
  1842  5.1760e-03  6.5753e-03  1.4047e-02  7.3638e-01  5.1659e-03  3.6729e-03  1.2602e-03  0:00:35  158
  1843  5.0637e-03  6.4728e-03  1.3963e-02  7.4150e-01  5.0540e-03  3.6788e-03  1.2600e-03  0:00:27  157
  1844  5.0466e-03  6.3922e-03  1.3969e-02  7.4017e-01  5.0374e-03  3.6752e-03  1.2594e-03  0:00:22  156
  1845  5.0515e-03  6.3389e-03  1.4061e-02  7.3315e-01  5.0430e-03  3.6734e-03  1.2673e-03  0:00:17  155
  1846  5.0545e-03  6.3049e-03  1.4216e-02  7.3290e-01  5.0467e-03  3.6658e-03  1.2605e-03  0:00:14  154
  1847  5.0670e-03  6.2589e-03  1.4373e-02  7.3805e-01  5.0597e-03  3.6397e-03  1.2568e-03  0:00:11  153
  1848  5.1177e-03  6.1958e-03  1.4486e-02  7.4589e-01  5.1107e-03  3.6045e-03  1.2468e-03  0:00:09  152

  iter  continuity  x-velocity  y-velocity  z-velocity      energy           k       omega     time/iter
  1849  5.2055e-03  6.1193e-03  1.4528e-02  7.5036e-01  5.1986e-03  3.5796e-03  1.2449e-03  0:00:07  151
  1850  5.3518e-03  6.0476e-03  1.4499e-02  7.5132e-01  5.3448e-03  3.5593e-03  1.2470e-03  0:00:05  150
  1851  5.5177e-03  5.9839e-03  1.4428e-02  7.5676e-01  5.5104e-03  3.5403e-03  1.2467e-03  0:00:04  149
  1852  5.6877e-03  5.9052e-03  1.4336e-02  7.6228e-01  5.6802e-03  3.5199e-03  1.2462e-03  0:00:03  148
  1853  5.8043e-03  5.8769e-03  1.4295e-02  7.6164e-01  5.7966e-03  3.5056e-03  1.2404e-03  0:00:03  147
  1854  5.8866e-03  5.8554e-03  1.4308e-02  7.5486e-01  5.8787e-03  3.4914e-03  1.2342e-03  0:00:31  146
  1855  5.9437e-03  5.8086e-03  1.4360e-02  7.4536e-01  5.9358e-03  3.4728e-03  1.2365e-03  0:00:25  145
  1856  5.9858e-03  5.7370e-03  1.4479e-02  7.3420e-01  5.9783e-03  3.4629e-03  1.2382e-03  0:00:20  144
  1857  6.0468e-03  5.6532e-03  1.4644e-02  7.2220e-01  6.0396e-03  3.4546e-03  1.2363e-03  0:00:16  143
  1858  6.0944e-03  5.6039e-03  1.4814e-02  7.1856e-01  6.0876e-03  3.4448e-03  1.2348e-03  0:00:13  142
  1859  6.1196e-03  5.5769e-03  1.4965e-02  7.1887e-01  6.1131e-03  3.4263e-03  1.2350e-03  0:00:10  141

  iter  continuity  x-velocity  y-velocity  z-velocity      energy           k       omega     time/iter
  1860  6.1391e-03  5.5654e-03  1.5096e-02  7.2419e-01  6.1328e-03  3.4036e-03  1.2312e-03  0:00:08  140
  1861  6.1628e-03  5.5661e-03  1.5180e-02  7.3287e-01  6.1566e-03  3.4058e-03  1.2301e-03  0:00:06  139
  1862  6.1873e-03  5.5803e-03  1.5240e-02  7.4436e-01  6.1811e-03  3.4009e-03  1.2257e-03  0:00:05  138
  1863  6.2114e-03  5.6039e-03  1.5298e-02  7.5576e-01  6.2052e-03  3.4052e-03  1.2241e-03  0:00:04  137
  1864  6.2414e-03  5.6232e-03  1.5368e-02  7.5875e-01  6.2349e-03  3.3933e-03  1.2185e-03  0:00:03  136
  1865  6.2856e-03  5.6426e-03  1.5454e-02  7.6542e-01  6.2789e-03  3.3853e-03  1.2173e-03  0:00:29  135
  1866  6.3038e-03  5.6671e-03  1.5573e-02  7.7666e-01  6.2970e-03  3.3739e-03  1.2218e-03  0:00:23  134
  1867  6.2745e-03  5.6901e-03  1.5696e-02  7.9213e-01  6.2676e-03  3.3736e-03  1.2277e-03  0:00:19  133
  1868  6.2311e-03  5.7081e-03  1.5796e-02  8.0422e-01  6.2242e-03  3.3617e-03  1.2304e-03  0:00:15  132
  1869  6.1764e-03  5.7243e-03  1.5917e-02  8.1798e-01  6.1696e-03  3.3592e-03  1.2353e-03  0:00:12  131
  1870  6.1281e-03  5.7443e-03  1.6045e-02  8.3235e-01  6.1214e-03  3.3538e-03  1.2359e-03  0:00:09  130

  iter  continuity  x-velocity  y-velocity  z-velocity      energy           k       omega     time/iter
  1871  6.0487e-03  5.7686e-03  1.6167e-02  8.4581e-01  6.0420e-03  3.3432e-03  1.2327e-03  0:00:07  129
  1872  5.9588e-03  5.7920e-03  1.6274e-02  8.5883e-01  5.9521e-03  3.3347e-03  1.2343e-03  0:00:06  128
  1873  5.8525e-03  5.8276e-03  1.6353e-02  8.7318e-01  5.8458e-03  3.3204e-03  1.2391e-03  0:00:05  127
  1874  5.7382e-03  5.8787e-03  1.6463e-02  8.8463e-01  5.7315e-03  3.3184e-03  1.2336e-03  0:00:04  126
  1875  5.6187e-03  5.9403e-03  1.6563e-02  8.9754e-01  5.6120e-03  3.3264e-03  1.2368e-03  0:00:03  125
  1876  5.5273e-03  6.0175e-03  1.6625e-02  9.1130e-01  5.5205e-03  3.3389e-03  1.2403e-03  0:00:27  124
  1877  5.4277e-03  6.1001e-03  1.6654e-02  9.2853e-01  5.4210e-03  3.3431e-03  1.2455e-03  0:00:22  123
  1878  5.3205e-03  6.1847e-03  1.6637e-02  9.4663e-01  5.3138e-03  3.3443e-03  1.2495e-03  0:00:17  122
  1879  5.2287e-03  6.2861e-03  1.6584e-02  9.6680e-01  5.2219e-03  3.3409e-03  1.2547e-03  0:00:14  121
  1880  5.1553e-03  6.3930e-03  1.6527e-02  9.8480e-01  5.1483e-03  3.3392e-03  1.2592e-03  0:00:11  120
  1881  5.0948e-03  6.4897e-03  1.6438e-02  9.9931e-01  5.0876e-03  3.3467e-03  1.2638e-03  0:00:09  119

  iter  continuity  x-velocity  y-velocity  z-velocity      energy           k       omega     time/iter
  1882  5.0409e-03  6.5722e-03  1.6345e-02  1.0080e+00  5.0336e-03  3.3455e-03  1.2619e-03  0:00:07  118
  1883  4.9989e-03  6.6487e-03  1.6253e-02  1.0156e+00  4.9915e-03  3.3528e-03  1.2614e-03  0:00:05  117
  1884  5.0016e-03  6.7451e-03  1.6148e-02  1.0187e+00  4.9943e-03  3.3508e-03  1.2559e-03  0:00:04  116
  1885  5.0031e-03  6.8453e-03  1.6033e-02  1.0179e+00  4.9959e-03  3.3545e-03  1.2596e-03  0:00:03  115
  1886  5.0252e-03  6.9305e-03  1.5922e-02  1.0085e+00  5.0180e-03  3.3541e-03  1.2664e-03  0:00:03  114
  1887  5.1056e-03  7.0035e-03  1.5827e-02  9.9829e-01  5.0985e-03  3.3527e-03  1.2700e-03  0:00:02  113
  1888  5.2265e-03  7.0662e-03  1.5694e-02  9.8512e-01  5.2193e-03  3.3501e-03  1.2798e-03  0:00:24  112
  1889  5.4074e-03  7.1278e-03  1.5518e-02  9.7930e-01  5.4002e-03  3.3595e-03  1.2840e-03  0:00:19  111
  1890  5.5977e-03  7.1818e-03  1.5306e-02  9.8085e-01  5.5904e-03  3.3717e-03  1.2874e-03  0:00:15  110
  1891  5.8217e-03  7.2354e-03  1.5069e-02  9.9051e-01  5.8142e-03  3.3821e-03  1.2817e-03  0:00:12  109
  1892  6.0296e-03  7.2884e-03  1.4821e-02  9.9419e-01  6.0218e-03  3.3963e-03  1.2784e-03  0:00:10  108

  iter  continuity  x-velocity  y-velocity  z-velocity      energy           k       omega     time/iter
  1893  6.1712e-03  7.3848e-03  1.4598e-02  1.0039e+00  6.1631e-03  3.4014e-03  1.2704e-03  0:00:08  107
  1894  6.3120e-03  7.4890e-03  1.4409e-02  9.9368e-01  6.3038e-03  3.4132e-03  1.2661e-03  0:00:06  106
  1895  6.4433e-03  7.5789e-03  1.4245e-02  9.7350e-01  6.4349e-03  3.4207e-03  1.2755e-03  0:00:05  105
  1896  6.6172e-03  7.6575e-03  1.4101e-02  9.4102e-01  6.6085e-03  3.4277e-03  1.2846e-03  0:00:04  104
  1897  6.8707e-03  7.7184e-03  1.3974e-02  9.1076e-01  6.8614e-03  3.4309e-03  1.2880e-03  0:00:03  103
  1898  7.1537e-03  7.7520e-03  1.3854e-02  8.8941e-01  7.1437e-03  3.4366e-03  1.2936e-03  0:00:02  102
  1899  7.3628e-03  7.7569e-03  1.3781e-02  8.8281e-01  7.3523e-03  3.4537e-03  1.2994e-03  0:00:22  101
  1900  7.4981e-03  7.7136e-03  1.3742e-02  8.7532e-01  7.4873e-03  3.4637e-03  1.3017e-03  0:00:17  100
  1901  7.5581e-03  7.6727e-03  1.3744e-02  8.6932e-01  7.5475e-03  3.4781e-03  1.2974e-03  0:00:14   99
  1902  7.5544e-03  7.6471e-03  1.3737e-02  8.6898e-01  7.5442e-03  3.4831e-03  1.2851e-03  0:00:11   98
  1903  7.4821e-03  7.6321e-03  1.3726e-02  8.7506e-01  7.4723e-03  3.4883e-03  1.2767e-03  0:00:09   97

  iter  continuity  x-velocity  y-velocity  z-velocity      energy           k       omega     time/iter
  1904  7.4161e-03  7.6292e-03  1.3711e-02  8.7584e-01  7.4066e-03  3.4895e-03  1.2724e-03  0:00:07   96
  1905  7.3854e-03  7.6470e-03  1.3666e-02  8.7797e-01  7.3759e-03  3.4959e-03  1.2720e-03  0:00:05   95
  1906  7.3891e-03  7.6890e-03  1.3597e-02  8.7260e-01  7.3793e-03  3.5015e-03  1.2647e-03  0:00:04   94
  1907  7.4865e-03  7.7280e-03  1.3575e-02  8.6499e-01  7.4760e-03  3.5101e-03  1.2615e-03  0:00:03   93
  1908  7.5790e-03  7.7757e-03  1.3564e-02  8.4887e-01  7.5678e-03  3.5254e-03  1.2564e-03  0:00:03   92
  1909  7.6162e-03  7.7902e-03  1.3578e-02  8.3723e-01  7.6046e-03  3.5450e-03  1.2594e-03  0:00:02   91
  1910  7.5941e-03  7.7533e-03  1.3636e-02  8.2725e-01  7.5824e-03  3.5580e-03  1.2565e-03  0:00:02   90
  1911  7.5483e-03  7.6837e-03  1.3734e-02  8.2381e-01  7.5369e-03  3.5573e-03  1.2519e-03  0:00:19   89
  1912  7.4362e-03  7.6840e-03  1.3878e-02  8.1932e-01  7.4250e-03  3.5519e-03  1.2516e-03  0:00:15   88
  1913  7.2733e-03  7.6917e-03  1.4038e-02  8.1508e-01  7.2623e-03  3.5526e-03  1.2576e-03  0:00:12   87
  1914  7.1173e-03  7.6623e-03  1.4181e-02  8.0513e-01  7.1063e-03  3.5579e-03  1.2549e-03  0:00:09   86

  iter  continuity  x-velocity  y-velocity  z-velocity      energy           k       omega     time/iter
  1915  6.9938e-03  7.6149e-03  1.4287e-02  7.9570e-01  6.9829e-03  3.5745e-03  1.2592e-03  0:00:07   85
  1916  6.8445e-03  7.5567e-03  1.4322e-02  7.8815e-01  6.8335e-03  3.6100e-03  1.2642e-03  0:00:06   84
  1917  6.7515e-03  7.4864e-03  1.4288e-02  7.9244e-01  6.7405e-03  3.6336e-03  1.2632e-03  0:00:05   83
  1918  6.6390e-03  7.4061e-03  1.4211e-02  7.9839e-01  6.6278e-03  3.6497e-03  1.2701e-03  0:00:04   82
  1919  6.4171e-03  7.3225e-03  1.4115e-02  7.9715e-01  6.4058e-03  3.6683e-03  1.2615e-03  0:00:03   81
  1920  6.1508e-03  7.2346e-03  1.4032e-02  7.9510e-01  6.1394e-03  3.6876e-03  1.2493e-03  0:00:02   80
  1921  5.9331e-03  7.1606e-03  1.4001e-02  7.8778e-01  5.9220e-03  3.7061e-03  1.2431e-03  0:00:02   79
  1922  5.7748e-03  7.1002e-03  1.4029e-02  7.7878e-01  5.7643e-03  3.7204e-03  1.2414e-03  0:00:17   78
  1923  5.5851e-03  7.0842e-03  1.4144e-02  7.7240e-01  5.5752e-03  3.7355e-03  1.2390e-03  0:00:13   77
  1924  5.4232e-03  7.0766e-03  1.4294e-02  7.7336e-01  5.4139e-03  3.7433e-03  1.2455e-03  0:00:11   76
  1925  5.3382e-03  7.0601e-03  1.4431e-02  7.7495e-01  5.3292e-03  3.7360e-03  1.2653e-03  0:00:08   75

  iter  continuity  x-velocity  y-velocity  z-velocity      energy           k       omega     time/iter
  1926  5.3477e-03  7.0201e-03  1.4515e-02  7.7781e-01  5.3386e-03  3.7245e-03  1.2692e-03  0:00:07   74
  1927  5.3773e-03  6.9560e-03  1.4525e-02  7.7786e-01  5.3679e-03  3.7012e-03  1.2570e-03  0:00:05   73
  1928  5.3849e-03  6.8928e-03  1.4456e-02  7.7970e-01  5.3750e-03  3.6793e-03  1.2567e-03  0:00:04   72
  1929  5.4252e-03  6.7591e-03  1.4319e-02  7.7478e-01  5.4149e-03  3.6685e-03  1.2557e-03  0:00:03   71
  1930  5.3344e-03  6.6571e-03  1.4175e-02  7.7283e-01  5.3240e-03  3.6672e-03  1.2560e-03  0:00:03   70
  1931  5.1942e-03  6.5453e-03  1.4054e-02  7.7554e-01  5.1841e-03  3.6646e-03  1.2581e-03  0:00:02   69
  1932  5.0858e-03  6.4474e-03  1.3972e-02  7.8153e-01  5.0761e-03  3.6708e-03  1.2560e-03  0:00:02   68
  1933  5.0698e-03  6.3709e-03  1.3979e-02  7.8096e-01  5.0607e-03  3.6671e-03  1.2575e-03  0:00:15   67
  1934  5.0736e-03  6.3187e-03  1.4074e-02  7.7372e-01  5.0652e-03  3.6627e-03  1.2630e-03  0:00:12   66
  1935  5.0748e-03  6.2848e-03  1.4229e-02  7.7141e-01  5.0670e-03  3.6557e-03  1.2553e-03  0:00:09   65
  1936  5.0874e-03  6.2378e-03  1.4385e-02  7.7475e-01  5.0802e-03  3.6295e-03  1.2531e-03  0:00:07   64

  iter  continuity  x-velocity  y-velocity  z-velocity      energy           k       omega     time/iter
  1937  5.1389e-03  6.1738e-03  1.4498e-02  7.8002e-01  5.1320e-03  3.5954e-03  1.2418e-03  0:00:06   63
  1938  5.2271e-03  6.0964e-03  1.4540e-02  7.8217e-01  5.2203e-03  3.5719e-03  1.2409e-03  0:00:04   62
  1939  5.3729e-03  6.0241e-03  1.4513e-02  7.8098e-01  5.3660e-03  3.5510e-03  1.2427e-03  0:00:03   61
  1940  5.5373e-03  5.9612e-03  1.4444e-02  7.8493e-01  5.5302e-03  3.5317e-03  1.2418e-03  0:00:03   60
  1941  5.7055e-03  5.8858e-03  1.4356e-02  7.8732e-01  5.6981e-03  3.5115e-03  1.2425e-03  0:00:02   59
  1942  5.8238e-03  5.8645e-03  1.4321e-02  7.8405e-01  5.8161e-03  3.4973e-03  1.2355e-03  0:00:02   58
  1943  5.9012e-03  5.8421e-03  1.4340e-02  7.7584e-01  5.8934e-03  3.4816e-03  1.2297e-03  0:00:01   57
  1944  5.9579e-03  5.7934e-03  1.4398e-02  7.6435e-01  5.9502e-03  3.4630e-03  1.2329e-03  0:00:01   56
  1945  6.0002e-03  5.7209e-03  1.4523e-02  7.5185e-01  5.9927e-03  3.4532e-03  1.2333e-03  0:00:12   55
  1946  6.0605e-03  5.6381e-03  1.4693e-02  7.3838e-01  6.0534e-03  3.4450e-03  1.2316e-03  0:00:09   54
  1947  6.1051e-03  5.5904e-03  1.4864e-02  7.3355e-01  6.0984e-03  3.4325e-03  1.2299e-03  0:00:07   53

  iter  continuity  x-velocity  y-velocity  z-velocity      energy           k       omega     time/iter
  1948  6.1246e-03  5.5647e-03  1.5017e-02  7.3226e-01  6.1182e-03  3.4136e-03  1.2303e-03  0:00:06   52
  1949  6.1438e-03  5.5546e-03  1.5146e-02  7.3568e-01  6.1375e-03  3.3943e-03  1.2251e-03  0:00:04   51
  1950  6.1617e-03  5.5562e-03  1.5231e-02  7.4273e-01  6.1556e-03  3.3947e-03  1.2254e-03  0:00:04   50
  1951  6.1794e-03  5.5711e-03  1.5294e-02  7.5183e-01  6.1733e-03  3.3908e-03  1.2216e-03  0:00:03   49
  1952  6.1981e-03  5.5958e-03  1.5352e-02  7.6133e-01  6.1919e-03  3.3936e-03  1.2186e-03  0:00:02   48
  1953  6.2242e-03  5.6162e-03  1.5424e-02  7.6315e-01  6.2177e-03  3.3822e-03  1.2145e-03  0:00:02   47
  1954  6.2694e-03  5.6371e-03  1.5513e-02  7.6847e-01  6.2627e-03  3.3748e-03  1.2132e-03  0:00:01   46
  1955  6.2752e-03  5.6620e-03  1.5634e-02  7.7748e-01  6.2684e-03  3.3636e-03  1.2186e-03  0:00:01   45
  1956  6.2422e-03  5.6860e-03  1.5754e-02  7.9053e-01  6.2353e-03  3.3634e-03  1.2231e-03  0:00:01   44
  1957  6.1997e-03  5.7047e-03  1.5854e-02  8.0191e-01  6.1929e-03  3.3509e-03  1.2270e-03  0:00:09   43
  1958  6.1463e-03  5.7224e-03  1.5973e-02  8.1346e-01  6.1395e-03  3.3502e-03  1.2321e-03  0:00:07   42

  iter  continuity  x-velocity  y-velocity  z-velocity      energy           k       omega     time/iter
  1959  6.0963e-03  5.7443e-03  1.6099e-02  8.2541e-01  6.0895e-03  3.3429e-03  1.2325e-03  0:00:06   41
  1960  6.0104e-03  5.7693e-03  1.6218e-02  8.3667e-01  6.0037e-03  3.3313e-03  1.2298e-03  0:00:04   40
  1961  5.9190e-03  5.7929e-03  1.6321e-02  8.4812e-01  5.9123e-03  3.3233e-03  1.2321e-03  0:00:03   39
  1962  5.8112e-03  5.8296e-03  1.6398e-02  8.6064e-01  5.8045e-03  3.3105e-03  1.2351e-03  0:00:03   38
  1963  5.6969e-03  5.8816e-03  1.6504e-02  8.6974e-01  5.6902e-03  3.3105e-03  1.2297e-03  0:00:02   37
  1964  5.5847e-03  5.9453e-03  1.6600e-02  8.8230e-01  5.5780e-03  3.3184e-03  1.2342e-03  0:00:02   36
  1965  5.4927e-03  6.0245e-03  1.6656e-02  8.9449e-01  5.4860e-03  3.3316e-03  1.2360e-03  0:00:01   35
  1966  5.3938e-03  6.1068e-03  1.6680e-02  9.0958e-01  5.3871e-03  3.3343e-03  1.2422e-03  0:00:01   34
  1967  5.2886e-03  6.1907e-03  1.6652e-02  9.2555e-01  5.2819e-03  3.3358e-03  1.2462e-03  0:00:01   33
  1968  5.2022e-03  6.2920e-03  1.6594e-02  9.4323e-01  5.1953e-03  3.3327e-03  1.2512e-03  0:00:07   32
  1969  5.1367e-03  6.3983e-03  1.6532e-02  9.5878e-01  5.1297e-03  3.3321e-03  1.2549e-03  0:00:05   31

  iter  continuity  x-velocity  y-velocity  z-velocity      energy           k       omega     time/iter
  1970  5.0813e-03  6.4943e-03  1.6439e-02  9.7167e-01  5.0741e-03  3.3379e-03  1.2586e-03  0:00:04   30
  1971  5.0289e-03  6.5758e-03  1.6342e-02  9.7869e-01  5.0216e-03  3.3390e-03  1.2563e-03  0:00:03   29
  1972  4.9986e-03  6.6541e-03  1.6247e-02  9.8422e-01  4.9912e-03  3.3448e-03  1.2566e-03  0:00:03   28
  1973  5.0067e-03  6.7548e-03  1.6136e-02  9.8490e-01  4.9994e-03  3.3437e-03  1.2496e-03  0:00:02   27
  1974  5.0110e-03  6.8525e-03  1.6018e-02  9.8141e-01  5.0038e-03  3.3460e-03  1.2557e-03  0:00:01   26
  1975  5.0423e-03  6.9345e-03  1.5907e-02  9.7043e-01  5.0352e-03  3.3434e-03  1.2608e-03  0:00:01   25
  1976  5.1342e-03  7.0053e-03  1.5809e-02  9.5925e-01  5.1270e-03  3.3426e-03  1.2664e-03  0:00:01   24
  1977  5.2680e-03  7.0653e-03  1.5669e-02  9.5073e-01  5.2608e-03  3.3402e-03  1.2779e-03  0:00:01   23
  1978  5.4559e-03  7.1247e-03  1.5490e-02  9.4588e-01  5.4486e-03  3.3513e-03  1.2796e-03  0:00:01   22
  1979  5.6489e-03  7.1758e-03  1.5274e-02  9.4399e-01  5.6416e-03  3.3644e-03  1.2824e-03  0:00:05   21
  1980  5.8802e-03  7.2282e-03  1.5035e-02  9.5021e-01  5.8727e-03  3.3748e-03  1.2764e-03  0:00:04   20

  iter  continuity  x-velocity  y-velocity  z-velocity      energy           k       omega     time/iter
  1981  6.0621e-03  7.2830e-03  1.4790e-02  9.5412e-01  6.0542e-03  3.3886e-03  1.2748e-03  0:00:03   19
  1982  6.2106e-03  7.3878e-03  1.4572e-02  9.6107e-01  6.2025e-03  3.3945e-03  1.2617e-03  0:00:02   18
  1983  6.3441e-03  7.4895e-03  1.4388e-02  9.4954e-01  6.3358e-03  3.4077e-03  1.2619e-03  0:00:02   17
  1984  6.4741e-03  7.5764e-03  1.4224e-02  9.2798e-01  6.4657e-03  3.4129e-03  1.2725e-03  0:00:01   16
  1985  6.6531e-03  7.6522e-03  1.4085e-02  8.9496e-01  6.6443e-03  3.4196e-03  1.2797e-03  0:00:01   15
  1986  6.9153e-03  7.7079e-03  1.3960e-02  8.6597e-01  6.9058e-03  3.4216e-03  1.2842e-03  0:00:01   14
  1987  7.1956e-03  7.7399e-03  1.3844e-02  8.4433e-01  7.1855e-03  3.4295e-03  1.2891e-03  0:00:00   13
  1988  7.3906e-03  7.7391e-03  1.3778e-02  8.3653e-01  7.3801e-03  3.4464e-03  1.2952e-03  0:00:00   12
  1989  7.5129e-03  7.6902e-03  1.3744e-02  8.2996e-01  7.5022e-03  3.4564e-03  1.2958e-03  0:00:00   11
  1990  7.5669e-03  7.6569e-03  1.3755e-02  8.2556e-01  7.5564e-03  3.4693e-03  1.2897e-03  0:00:00   10
  1991  7.5477e-03  7.6316e-03  1.3747e-02  8.2246e-01  7.5376e-03  3.4738e-03  1.2766e-03  0:00:02    9

  iter  continuity  x-velocity  y-velocity  z-velocity      energy           k       omega     time/iter
  1992  7.4652e-03  7.6163e-03  1.3737e-02  8.2730e-01  7.4555e-03  3.4796e-03  1.2705e-03  0:00:01    8
  1993  7.3948e-03  7.6116e-03  1.3717e-02  8.2954e-01  7.3853e-03  3.4815e-03  1.2658e-03  0:00:01    7
  1994  7.3660e-03  7.6348e-03  1.3669e-02  8.2836e-01  7.3565e-03  3.4881e-03  1.2658e-03  0:00:01    6
  1995  7.3782e-03  7.6739e-03  1.3600e-02  8.2469e-01  7.3684e-03  3.4950e-03  1.2580e-03  0:00:00    5
  1996  7.4799e-03  7.7141e-03  1.3580e-02  8.1880e-01  7.4693e-03  3.5033e-03  1.2510e-03  0:00:00    4
  1997  7.5603e-03  7.7608e-03  1.3569e-02  8.0515e-01  7.5491e-03  3.5199e-03  1.2548e-03  0:00:00    3
  1998  7.5872e-03  7.7688e-03  1.3585e-02  7.9440e-01  7.5756e-03  3.5392e-03  1.2571e-03  0:00:00    2
  1999  7.5555e-03  7.7190e-03  1.3646e-02  7.8491e-01  7.5438e-03  3.5495e-03  1.2510e-03  0:00:00    1
  2000  7.5031e-03  7.6594e-03  1.3752e-02  7.8216e-01  7.4918e-03  3.5509e-03  1.2462e-03  0:00:00    0

> 
adjoint/                parallel/               server/
define/                 parametric-study/       solve/
display/                plot/                   surface/
exit                    preferences/            turbo-workflow/
file/                   print-license-usage     views/
mesh/                   report/

> /file/write-case-data project1
Fast-loading "C:\PROGRA~1\ANSYSI~1\v231\fluent\fluent23.1.0\\addons\afd\lib\hdfio.bin"
Done.

Writing to Engs-30669:"C:\Users\kebl7595\Desktop\CFD\Runs\Flap\Shallower Aspect Ratio\15 degrees\project1.cas.h5" in NODE0 mode and compression level 1 ...
       19422 cells,     1 zone  ...
       65325 faces,     7 zones ...
       26676 nodes,     1 zone  ...
  Done.
Done.

Writing to Engs-30669:"C:\Users\kebl7595\Desktop\CFD\Runs\Flap\Shallower Aspect Ratio\15 degrees\project1.dat.h5" in NODE0 mode and compression level 1 ...
  Writing results.
Done.

> /file/export/ascii "./surface.dat" wing () no pressure mach-number quit no

Writing "./surface.dat"...

Writing information to ascii file ...
Done.


> /report/forces/wall-forces y -0.25882 -0.96593 0 y "Lift"

> /report/forces/wall-forces y 0.96593 -0.25882 0 y "Drag"

> /exit

Posting ANSYS Product Improvement Program performance data 
Done.
Auto-Transcript Stop Time:  11:43:35, 22 May 2024 GMT Daylight Time 
Total Transcript Time: 5 Minute 48 Second.
