Auto-Transcript Start Time:  12:22:01, 22 May 2024 GMT Daylight Time 
Current Directory: "C:\Users\kebl7595\Desktop\CFD\Runs\Flap\Re 3e5\AR 1"

              Welcome to ANSYS Fluent 2023 R1

              Copyright 1987-2023 ANSYS, Inc. All Rights Reserved.
              Unauthorized use, distribution or duplication is prohibited.
              This product is subject to U.S. laws governing export and re-export.
              For full Legal Notice, see documentation.

Build Time: Nov 28 2022 09:52:02 EST  Build Id: 10208  
 
Connected License Server List:	1055@ansyslic.eng.ox.ac.uk

*********************************************
Info: Your license enables 4-way parallel execution.
For faster simulations, please start the application with the appropriate parallel options.
*********************************************


     --------------------------------------------------------------
     This is an academic version of ANSYS FLUENT. Usage of this product
     license is limited to the terms and conditions specified in your ANSYS
     license form, additional terms section.
     --------------------------------------------------------------
Host spawning Node 0 on machine "Engs-30669" (win64).

------------------------------------------------------------------------------------
ID    Hostname    Core  O.S.         PID    Vendor                                 
------------------------------------------------------------------------------------
n0    Engs-30669  1/32  Windows-x64  34204  13th Gen Intel(R) Core(TM) i9-13900    
host  Engs-30669        Windows-x64  31576  13th Gen Intel(R) Core(TM) i9-13900    

MPI Option Selected: intel
------------------------------------------------------------------------------------

Cleanup script file is C:\\Users\\kebl7595\\Desktop\\CFD\\Runs\\Flap\\Re 3e5\\AR 1\\cleanup-fluent-Engs-30669-31576.bat

Posting ANSYS Product Improvement Program startup data
Done.

Reading journal file C:/Users/kebl7595/Desktop/CFD/Runs/Flap/Re 3e5/AR 1/project1.jou...

> /file/set-batch-options no no no 

> 
define/                 parametric-study/       solve/
display/                plot/                   surface/
exit                    preferences/            switch-to-meshing-mode
file/                   print-license-usage     turbo-workflow/
mesh/                   report/                 views/
parallel/               server/

> /file/import/cgns/mesh  "./project1.cgns"
Engs-30669 has other FLUENT parallel processes running.                       Process affinity not being set.

Importing "./project1.cgns"

Opening library "C:\\PROGRA~1\\ANSYSI~1\\v231\\fluent\\fluent23.1.0\\vki\\win64\\devtools4.4.6.dll"... done.

Read    26676 nodes
   19422 hexahedral cells, zone  1
   14118 quadrilateral wall faces, zone  2.
   50733 quadrilateral interior faces, zone  3.
     474 quadrilateral interface faces, zone  4.

Building...
     mesh
     materials,
     interface,
     domains,
     zones,
	interface-default_subface
	default_interior-1
	default_subface
	default
     parallel,
The automatic selection for flux type has changed to Rhie-Chow: momentum based.

Done.


> 
adjoint/                parallel/               server/
define/                 parametric-study/       solve/
display/                plot/                   surface/
exit                    preferences/            turbo-workflow/
file/                   print-license-usage     views/
mesh/                   report/

> /define/models/solver/density-based-implicit yes

> 
adjoint/                parallel/               server/
define/                 parametric-study/       solve/
display/                plot/                   surface/
exit                    preferences/            turbo-workflow/
file/                   print-license-usage     views/
mesh/                   report/

> /define/models/energy? yes yes invalid command [yes]
yes

> /define/models/viscous/kw-standard? yes

> 
adjoint/                parallel/               server/
define/                 parametric-study/       solve/
display/                plot/                   surface/
exit                    preferences/            turbo-workflow/
file/                   print-license-usage     views/
mesh/                   report/

> /define/materials/change-create air air air is a fluid
yes 
Density
ideal-gas no data required.

no no no no no no

> 
adjoint/                parallel/               server/
define/                 parametric-study/       solve/
display/                plot/                   surface/
exit                    preferences/            turbo-workflow/
file/                   print-license-usage     views/
mesh/                   report/

> /mesh/modify-zones/sep-face-zone-angle 2 90 yes

 6474 faces in contiguous region 0
 348 faces in contiguous region 1
 618 faces in contiguous region 2
 6474 faces in contiguous region 3
 204 faces in contiguous region 4
 Separates zone 2 into 5 zone(s).
Updating new zone information...
   created new zone default_subface:009 from default_subface
   created new zone default_subface:008 from default_subface
   created new zone default_subface:007 from default_subface
   created new zone default_subface:006 from default_subface
done.

> 
adjoint/                parallel/               server/
define/                 parametric-study/       solve/
display/                plot/                   surface/
exit                    preferences/            turbo-workflow/
file/                   print-license-usage     views/
mesh/                   report/

> /define/boundary-conditions/zone-name  6 wing

> /define/boundary-conditions/zone-name  2 sym1

> /define/boundary-conditions/zone-name  8 sym2

> 
adjoint/                parallel/               server/
define/                 parametric-study/       solve/
display/                plot/                   surface/
exit                    preferences/            turbo-workflow/
file/                   print-license-usage     views/
mesh/                   report/

> /define/boundary-conditions/zone-name  7 far1

> /define/boundary-conditions/zone-name 9 far2

> 
adjoint/                parallel/               server/
define/                 parametric-study/       solve/
display/                plot/                   surface/
exit                    preferences/            turbo-workflow/
file/                   print-license-usage     views/
mesh/                   report/

> /define/boundary-conditions/zone-type  7 pressure-far-field

> /define/boundary-conditions/zone-type 9 pressure-far-field

> /define/boundary-conditions/zone-type  2 symmetry

> /define/boundary-conditions/zone-type  8 symmetry

> 
adjoint/                parallel/               server/
define/                 parametric-study/       solve/
display/                plot/                   surface/
exit                    preferences/            turbo-workflow/
file/                   print-license-usage     views/
mesh/                   report/

> /define/boundary-conditions/pressure-far-field (far2 far1)
far1 no -0.8642 no 0.1 no 300 yes no 0.939693 no -0.342020 no 0. no yes 5 0.02

> /define/boundary-conditions/pressure-far-field (far2 far1)
far2 no -0.8642 no 0.1 no 300 yes no 0.939693 no -0.342020 no 0. no yes 5 0.02

> 
adjoint/                parallel/               server/
define/                 parametric-study/       solve/
display/                plot/                   surface/
exit                    preferences/            turbo-workflow/
file/                   print-license-usage     views/
mesh/                   report/

> /solve/initialize/compute-defaults/pressure-far-field (far2 far1)
far1

> /solve/initialize/initialize-flow

> 
adjoint/                parallel/               server/
define/                 parametric-study/       solve/
display/                plot/                   surface/
exit                    preferences/            turbo-workflow/
file/                   print-license-usage     views/
mesh/                   report/

> /solve/monitors/residual/convergence-criteria 1.e-9 1.e-9 1.e-9 1.e-9 1.e-9 1.e-9 1.e-9

> /solve/iterate 2000

  iter  continuity  x-velocity  y-velocity  z-velocity      energy           k       omega     time/iter
     1  1.0000e+00  1.0000e+00  1.0000e+00  1.0000e+00  1.0000e+00  5.0197e-02  4.9383e-02  0:33:19 1999
     2  5.2663e-01  5.4532e-01  4.9323e-01  1.0000e+00  5.2689e-01  4.4620e-02  3.7949e-02  0:26:38 1998
     3  2.8887e-01  3.1237e-01  2.8289e-01  1.0000e+00  2.8892e-01  4.0000e-02  3.2852e-02  0:21:18 1997
     4  1.7974e-01  1.7821e-01  2.0063e-01  9.2300e-01  1.7967e-01  3.6252e-02  2.9317e-02  0:17:02 1996
     5  1.3275e-01  1.1935e-01  1.6409e-01  9.8419e-01  1.3266e-01  3.3199e-02  2.7140e-02  0:13:37 1995
     6  1.1162e-01  9.1646e-02  1.4666e-01  1.0517e+00  1.1153e-01  3.0544e-02  2.5326e-02  0:17:32 1994
     7  9.7765e-02  7.8869e-02  1.4136e-01  1.0499e+00  9.7707e-02  2.8195e-02  2.3723e-02  0:14:01 1993
     8  8.5664e-02  7.1655e-02  1.3820e-01  1.0227e+00  8.5621e-02  2.6140e-02  2.2230e-02  0:11:13 1992
     9  7.9499e-02  6.8707e-02  1.3780e-01  9.8321e-01  7.9468e-02  2.4436e-02  2.0909e-02  0:08:58 1991
    10  7.5741e-02  6.7378e-02  1.3664e-01  9.5161e-01  7.5689e-02  2.2946e-02  1.9800e-02  0:07:10 1990
    11  7.0368e-02  6.6618e-02  1.3360e-01  9.2979e-01  7.0313e-02  2.1626e-02  1.8809e-02  0:05:44 1989

  iter  continuity  x-velocity  y-velocity  z-velocity      energy           k       omega     time/iter
    12  6.8512e-02  6.5069e-02  1.2999e-01  9.0046e-01  6.8432e-02  2.0453e-02  1.7899e-02  0:04:35 1988
    13  6.4671e-02  6.5031e-02  1.2639e-01  8.9892e-01  6.4589e-02  1.9422e-02  1.7065e-02  0:03:40 1987
    14  6.3421e-02  6.4524e-02  1.2093e-01  9.0880e-01  6.3331e-02  1.8500e-02  1.6287e-02  0:09:33 1986
    15  6.4338e-02  6.4298e-02  1.1805e-01  9.6553e-01  6.4241e-02  1.7714e-02  1.5596e-02  0:07:38 1985
    16  6.3289e-02  6.3449e-02  1.1508e-01  1.0313e+00  6.3182e-02  1.7030e-02  1.4992e-02  0:06:06 1984
    17  6.3518e-02  6.3305e-02  1.1263e-01  1.1025e+00  6.3406e-02  1.6435e-02  1.4462e-02  0:04:53 1983
    18  6.1666e-02  6.4485e-02  1.1048e-01  1.1847e+00  6.1547e-02  1.5927e-02  1.4006e-02  0:03:54 1982
    19  5.9577e-02  6.4599e-02  1.0889e-01  1.2617e+00  5.9449e-02  1.5487e-02  1.3600e-02  0:03:07 1981
    20  5.7510e-02  6.4723e-02  1.0560e-01  1.3450e+00  5.7377e-02  1.5129e-02  1.3251e-02  0:02:30 1980
    21  5.7817e-02  6.3726e-02  1.0314e-01  1.4156e+00  5.7670e-02  1.4816e-02  1.2927e-02  0:02:00 1979
    22  5.8094e-02  6.2000e-02  9.9659e-02  1.4778e+00  5.7937e-02  1.4563e-02  1.2669e-02  0:08:11 1978

  iter  continuity  x-velocity  y-velocity  z-velocity      energy           k       omega     time/iter
    23  5.9317e-02  6.0593e-02  9.6038e-02  1.5171e+00  5.9157e-02  1.4357e-02  1.2442e-02  0:06:33 1977
    24  5.9403e-02  5.8970e-02  9.2303e-02  1.5361e+00  5.9238e-02  1.4194e-02  1.2207e-02  0:05:14 1976
    25  5.9963e-02  5.5916e-02  8.8327e-02  1.5373e+00  5.9800e-02  1.4036e-02  1.1937e-02  0:04:11 1975
    26  5.9892e-02  5.2593e-02  8.5073e-02  1.5053e+00  5.9732e-02  1.3860e-02  1.1722e-02  0:03:21 1974
    27  6.0592e-02  4.9888e-02  8.2892e-02  1.4529e+00  6.0438e-02  1.3764e-02  1.1573e-02  0:02:41 1973
    28  6.1372e-02  4.7992e-02  8.0917e-02  1.4017e+00  6.1227e-02  1.3675e-02  1.1299e-02  0:02:08 1972
    29  6.1722e-02  4.6533e-02  7.9439e-02  1.3402e+00  6.1583e-02  1.3508e-02  1.1111e-02  0:08:17 1971
    30  6.0162e-02  4.4603e-02  7.8043e-02  1.2685e+00  6.0022e-02  1.3355e-02  1.0887e-02  0:06:37 1970
    31  5.8042e-02  4.3002e-02  7.6296e-02  1.1817e+00  5.7900e-02  1.3230e-02  1.0702e-02  0:05:18 1969
    32  5.5590e-02  4.1787e-02  7.3590e-02  1.1070e+00  5.5444e-02  1.3073e-02  1.0503e-02  0:04:14 1968
    33  5.3168e-02  4.0409e-02  7.1003e-02  1.0451e+00  5.3018e-02  1.2881e-02  1.0236e-02  0:03:23 1967

  iter  continuity  x-velocity  y-velocity  z-velocity      energy           k       omega     time/iter
    34  4.9981e-02  3.9072e-02  6.7978e-02  1.0029e+00  4.9827e-02  1.2672e-02  1.0005e-02  0:02:42 1966
    35  4.7387e-02  3.7522e-02  6.4651e-02  9.5504e-01  4.7229e-02  1.2501e-02  9.7915e-03  0:02:10 1965
    36  4.5314e-02  3.6346e-02  6.1873e-02  9.1353e-01  4.5149e-02  1.2336e-02  9.5813e-03  0:01:44 1964
    37  4.3100e-02  3.5063e-02  5.8594e-02  8.7578e-01  4.2930e-02  1.2130e-02  9.3678e-03  0:07:56 1963
    38  4.0858e-02  3.4092e-02  5.5671e-02  8.2878e-01  4.0683e-02  1.1947e-02  9.1658e-03  0:06:20 1962
    39  3.9106e-02  3.3017e-02  5.3562e-02  7.8388e-01  3.8926e-02  1.1760e-02  8.9266e-03  0:05:04 1961
    40  3.8304e-02  3.2212e-02  5.2079e-02  7.3918e-01  3.8124e-02  1.1561e-02  8.6962e-03  0:04:03 1960
    41  3.7550e-02  3.1589e-02  5.0808e-02  6.9793e-01  3.7372e-02  1.1420e-02  8.5174e-03  0:03:14 1959
    42  3.7019e-02  3.1068e-02  5.0028e-02  6.5896e-01  3.6845e-02  1.1270e-02  8.3198e-03  0:02:35 1958
    43  3.6585e-02  3.1102e-02  4.9487e-02  6.2303e-01  3.6416e-02  1.1120e-02  8.1244e-03  0:02:04 1957
    44  3.6122e-02  3.1169e-02  4.8939e-02  5.9146e-01  3.5959e-02  1.1016e-02  7.9867e-03  0:01:39 1956

  iter  continuity  x-velocity  y-velocity  z-velocity      energy           k       omega     time/iter
    45  3.5468e-02  3.1086e-02  4.8823e-02  5.7094e-01  3.5309e-02  1.0927e-02  7.8256e-03  0:07:50 1955
    46  3.4641e-02  3.1115e-02  4.8899e-02  5.6449e-01  3.4485e-02  1.0837e-02  7.7038e-03  0:06:16 1954
    47  3.3166e-02  3.1033e-02  4.8956e-02  5.6782e-01  3.3010e-02  1.0791e-02  7.5787e-03  0:05:01 1953
    48  3.1462e-02  3.1367e-02  4.8924e-02  5.7815e-01  3.1304e-02  1.0738e-02  7.5162e-03  0:04:01 1952
    49  3.0141e-02  3.1361e-02  4.8847e-02  5.9805e-01  2.9983e-02  1.0728e-02  7.4435e-03  0:03:12 1951
    50  2.9078e-02  3.1051e-02  4.8795e-02  6.2736e-01  2.8920e-02  1.0708e-02  7.3706e-03  0:02:34 1950
    51  2.8652e-02  3.0581e-02  4.8726e-02  6.5584e-01  2.8498e-02  1.0703e-02  7.3153e-03  0:02:03 1949
    52  2.9060e-02  2.9944e-02  4.8403e-02  6.8103e-01  2.8913e-02  1.0730e-02  7.2580e-03  0:01:38 1948
    53  3.0054e-02  2.9037e-02  4.8122e-02  7.1023e-01  2.9915e-02  1.0760e-02  7.2233e-03  0:01:19 1947
    54  3.1466e-02  2.8097e-02  4.7854e-02  7.3023e-01  3.1338e-02  1.0772e-02  7.1578e-03  0:07:32 1946
    55  3.3257e-02  2.7246e-02  4.7688e-02  7.4970e-01  3.3138e-02  1.0811e-02  7.0704e-03  0:06:01 1945

  iter  continuity  x-velocity  y-velocity  z-velocity      energy           k       omega     time/iter
    56  3.4694e-02  2.6391e-02  4.7730e-02  7.6632e-01  3.4582e-02  1.0889e-02  7.0141e-03  0:04:49 1944
    57  3.6187e-02  2.5927e-02  4.7892e-02  7.7696e-01  3.6080e-02  1.0947e-02  6.9407e-03  0:03:51 1943
    58  3.7871e-02  2.5986e-02  4.8264e-02  7.6665e-01  3.7771e-02  1.1042e-02  6.8881e-03  0:03:05 1942
    59  4.0254e-02  2.6382e-02  4.8847e-02  7.5063e-01  4.0161e-02  1.1059e-02  6.8392e-03  0:02:28 1941
    60  4.2614e-02  2.6868e-02  4.9780e-02  7.3469e-01  4.2529e-02  1.1152e-02  6.8267e-03  0:01:58 1940
    61  4.3835e-02  2.7133e-02  5.1092e-02  7.0450e-01  4.3753e-02  1.1231e-02  6.7881e-03  0:01:34 1939
    62  4.3741e-02  2.7675e-02  5.2314e-02  6.7566e-01  4.3659e-02  1.1354e-02  6.7616e-03  0:07:43 1938
    63  4.3447e-02  2.8201e-02  5.3024e-02  6.5305e-01  4.3363e-02  1.1489e-02  6.7218e-03  0:06:10 1937
    64  4.2621e-02  2.8869e-02  5.3497e-02  6.3395e-01  4.2535e-02  1.1574e-02  6.6499e-03  0:04:56 1936
    65  4.0712e-02  2.8707e-02  5.3160e-02  6.1098e-01  4.0622e-02  1.1635e-02  6.6043e-03  0:03:57 1935
    66  3.8083e-02  2.8538e-02  5.2261e-02  5.7889e-01  3.7985e-02  1.1692e-02  6.5375e-03  0:03:09 1934

  iter  continuity  x-velocity  y-velocity  z-velocity      energy           k       omega     time/iter
    67  3.5644e-02  2.7834e-02  5.0661e-02  5.4730e-01  3.5538e-02  1.1704e-02  6.4799e-03  0:02:31 1933
    68  3.2946e-02  2.7041e-02  4.8747e-02  5.2124e-01  3.2829e-02  1.1754e-02  6.4014e-03  0:02:01 1932
    69  3.1138e-02  2.6047e-02  4.6747e-02  5.1000e-01  3.1013e-02  1.1765e-02  6.3516e-03  0:01:37 1931
    70  2.9871e-02  2.4771e-02  4.4404e-02  5.1708e-01  2.9739e-02  1.1758e-02  6.2616e-03  0:07:43 1930
    71  2.9626e-02  2.3855e-02  4.2508e-02  5.3877e-01  2.9492e-02  1.1751e-02  6.1638e-03  0:06:11 1929
    72  2.9037e-02  2.3240e-02  4.0541e-02  5.7332e-01  2.8900e-02  1.1789e-02  6.1226e-03  0:04:56 1928
    73  2.9389e-02  2.2411e-02  3.8960e-02  6.1665e-01  2.9254e-02  1.1814e-02  6.0440e-03  0:03:57 1927
    74  3.0134e-02  2.1658e-02  3.7811e-02  6.6611e-01  3.0004e-02  1.1845e-02  5.9908e-03  0:03:09 1926
    75  3.1902e-02  2.1524e-02  3.6910e-02  7.1663e-01  3.1784e-02  1.1890e-02  5.8926e-03  0:02:31 1925
    76  3.3240e-02  2.1681e-02  3.6121e-02  7.6328e-01  3.3133e-02  1.1952e-02  5.8224e-03  0:02:01 1924
    77  3.4898e-02  2.2017e-02  3.5827e-02  8.0822e-01  3.4801e-02  1.2029e-02  5.7815e-03  0:01:37 1923

  iter  continuity  x-velocity  y-velocity  z-velocity      energy           k       omega     time/iter
    78  3.6361e-02  2.2793e-02  3.6107e-02  8.4815e-01  3.6273e-02  1.2180e-02  5.7438e-03  0:01:17 1922
    79  3.6279e-02  2.3691e-02  3.6586e-02  8.8087e-01  3.6195e-02  1.2338e-02  5.7487e-03  0:07:26 1921
    80  3.5590e-02  2.5228e-02  3.6952e-02  9.0782e-01  3.5510e-02  1.2504e-02  5.7525e-03  0:05:57 1920
    81  3.4239e-02  2.6855e-02  3.7525e-02  9.2868e-01  3.4159e-02  1.2683e-02  5.7846e-03  0:04:45 1919
    82  3.2596e-02  2.8316e-02  3.8215e-02  9.4542e-01  3.2517e-02  1.2859e-02  5.8248e-03  0:03:48 1918
    83  3.1207e-02  2.9532e-02  3.8803e-02  9.5913e-01  3.1129e-02  1.3070e-02  5.8459e-03  0:03:02 1917
    84  3.0553e-02  3.0419e-02  3.9080e-02  9.7610e-01  3.0479e-02  1.3315e-02  5.8959e-03  0:02:26 1916
    85  3.1368e-02  3.0806e-02  3.8945e-02  9.9204e-01  3.1304e-02  1.3587e-02  5.9658e-03  0:01:57 1915
    86  3.2585e-02  3.0838e-02  3.8646e-02  1.0048e+00  3.2529e-02  1.3863e-02  5.9983e-03  0:01:33 1914
    87  3.3871e-02  3.0485e-02  3.8111e-02  1.0064e+00  3.3823e-02  1.4161e-02  6.0586e-03  0:07:37 1913
    88  3.5375e-02  2.9824e-02  3.7752e-02  9.9748e-01  3.5335e-02  1.4409e-02  6.0851e-03  0:06:06 1912

  iter  continuity  x-velocity  y-velocity  z-velocity      energy           k       omega     time/iter
    89  3.7094e-02  2.9230e-02  3.7062e-02  9.8286e-01  3.7063e-02  1.4699e-02  6.0939e-03  0:04:52 1911
    90  3.8681e-02  2.8426e-02  3.6516e-02  9.4784e-01  3.8657e-02  1.5038e-02  6.1128e-03  0:03:54 1910
    91  3.9950e-02  2.7527e-02  3.6526e-02  9.0845e-01  3.9932e-02  1.5374e-02  6.0774e-03  0:03:07 1909
    92  3.9893e-02  2.6802e-02  3.6262e-02  8.7451e-01  3.9881e-02  1.5569e-02  6.0723e-03  0:02:29 1908
    93  3.8597e-02  2.5954e-02  3.6168e-02  8.4501e-01  3.8589e-02  1.5820e-02  6.0263e-03  0:01:59 1907
    94  3.6630e-02  2.5122e-02  3.6149e-02  8.2668e-01  3.6624e-02  1.6072e-02  6.0046e-03  0:01:36 1906
    95  3.4598e-02  2.4312e-02  3.5776e-02  8.0510e-01  3.4596e-02  1.6345e-02  5.9948e-03  0:07:37 1905
    96  3.2437e-02  2.3817e-02  3.5027e-02  7.7922e-01  3.2438e-02  1.6556e-02  5.9352e-03  0:06:06 1904
    97  3.1134e-02  2.3513e-02  3.4034e-02  7.5580e-01  3.1138e-02  1.6659e-02  5.8838e-03  0:04:52 1903
    98  3.0355e-02  2.3401e-02  3.2552e-02  7.3274e-01  3.0361e-02  1.6807e-02  5.8458e-03  0:03:54 1902
    99  3.1002e-02  2.3393e-02  3.1186e-02  7.1288e-01  3.1010e-02  1.6950e-02  5.7757e-03  0:03:07 1901

  iter  continuity  x-velocity  y-velocity  z-velocity      energy           k       omega     time/iter
   100  3.0949e-02  2.3375e-02  2.9888e-02  6.9428e-01  3.0958e-02  1.7097e-02  5.6689e-03  0:02:29 1900
   101  3.1060e-02  2.3269e-02  2.8656e-02  6.7795e-01  3.1071e-02  1.7181e-02  5.5613e-03  0:02:00 1899
   102  3.1266e-02  2.3234e-02  2.7766e-02  6.6417e-01  3.1276e-02  1.7165e-02  5.4672e-03  0:01:36 1898
   103  3.1146e-02  2.3376e-02  2.6969e-02  6.4989e-01  3.1156e-02  1.7170e-02  5.4281e-03  0:07:36 1897
   104  3.0314e-02  2.3608e-02  2.6351e-02  6.3660e-01  3.0323e-02  1.7296e-02  5.3818e-03  0:06:04 1896
   105  2.8703e-02  2.3856e-02  2.5884e-02  6.2833e-01  2.8709e-02  1.7386e-02  5.2932e-03  0:04:51 1895
   106  2.6347e-02  2.4122e-02  2.5461e-02  6.2466e-01  2.6350e-02  1.7478e-02  5.2767e-03  0:03:53 1894
   107  2.4526e-02  2.4217e-02  2.5029e-02  6.2644e-01  2.4526e-02  1.7562e-02  5.2637e-03  0:03:06 1893
   108  2.4082e-02  2.4231e-02  2.4535e-02  6.3068e-01  2.4079e-02  1.7546e-02  5.2280e-03  0:02:29 1892
   109  2.5580e-02  2.4148e-02  2.4019e-02  6.3665e-01  2.5574e-02  1.7406e-02  5.1935e-03  0:01:59 1891
   110  2.7561e-02  2.3998e-02  2.3474e-02  6.4325e-01  2.7554e-02  1.7417e-02  5.1710e-03  0:01:35 1890

  iter  continuity  x-velocity  y-velocity  z-velocity      energy           k       omega     time/iter
   111  2.9742e-02  2.3828e-02  2.2822e-02  6.5540e-01  2.9734e-02  1.7534e-02  5.1487e-03  0:07:34 1889
   112  3.1361e-02  2.3673e-02  2.2349e-02  6.6365e-01  3.1351e-02  1.7589e-02  5.0968e-03  0:06:03 1888
   113  3.2045e-02  2.3576e-02  2.1879e-02  6.7308e-01  3.2033e-02  1.7612e-02  5.0311e-03  0:04:50 1887
   114  3.1684e-02  2.3502e-02  2.1586e-02  6.8463e-01  3.1669e-02  1.7637e-02  4.9457e-03  0:03:52 1886
   115  2.9810e-02  2.3428e-02  2.1367e-02  6.8711e-01  2.9792e-02  1.7616e-02  4.8575e-03  0:03:06 1885
   116  2.8138e-02  2.3292e-02  2.1090e-02  6.8472e-01  2.8118e-02  1.7570e-02  4.7371e-03  0:02:28 1884
   117  2.5134e-02  2.3116e-02  2.0611e-02  6.7447e-01  2.5108e-02  1.7392e-02  4.6626e-03  0:01:59 1883
   118  2.3666e-02  2.2933e-02  2.0059e-02  6.6969e-01  2.3636e-02  1.7201e-02  4.6104e-03  0:01:35 1882
   119  2.2965e-02  2.2849e-02  1.9592e-02  6.7144e-01  2.2931e-02  1.7201e-02  4.5482e-03  0:01:16 1881
   120  2.4208e-02  2.2827e-02  1.9167e-02  6.7472e-01  2.4172e-02  1.7199e-02  4.4729e-03  0:07:17 1880
   121  2.6792e-02  2.2794e-02  1.8701e-02  6.8007e-01  2.6756e-02  1.7202e-02  4.4189e-03  0:05:49 1879

  iter  continuity  x-velocity  y-velocity  z-velocity      energy           k       omega     time/iter
   122  2.9590e-02  2.2742e-02  1.8364e-02  6.8060e-01  2.9553e-02  1.7252e-02  4.3493e-03  0:04:39 1878
   123  3.2235e-02  2.2722e-02  1.8056e-02  6.7823e-01  3.2196e-02  1.7256e-02  4.2997e-03  0:03:43 1877
   124  3.3772e-02  2.2611e-02  1.7846e-02  6.7781e-01  3.3730e-02  1.7248e-02  4.2848e-03  0:02:58 1876
   125  3.4583e-02  2.2520e-02  1.7757e-02  6.7888e-01  3.4539e-02  1.7267e-02  4.2866e-03  0:02:23 1875
   126  3.4669e-02  2.2423e-02  1.7727e-02  6.8424e-01  3.4623e-02  1.7285e-02  4.2412e-03  0:01:54 1874
   127  3.4720e-02  2.2368e-02  1.7732e-02  6.9021e-01  3.4673e-02  1.7278e-02  4.2441e-03  0:01:31 1873
   128  3.4791e-02  2.2313e-02  1.7805e-02  6.9675e-01  3.4744e-02  1.7289e-02  4.2300e-03  0:07:27 1872
   129  3.5208e-02  2.2261e-02  1.7903e-02  7.0503e-01  3.5162e-02  1.7322e-02  4.2120e-03  0:05:58 1871
   130  3.5940e-02  2.2158e-02  1.8060e-02  7.1496e-01  3.5894e-02  1.7331e-02  4.2057e-03  0:04:46 1870
   131  3.6854e-02  2.2020e-02  1.8308e-02  7.2650e-01  3.6807e-02  1.7362e-02  4.2222e-03  0:03:49 1869
   132  3.7908e-02  2.1910e-02  1.8558e-02  7.4053e-01  3.7861e-02  1.7394e-02  4.2184e-03  0:03:03 1868

  iter  continuity  x-velocity  y-velocity  z-velocity      energy           k       omega     time/iter
   133  3.8947e-02  2.1786e-02  1.8845e-02  7.5596e-01  3.8898e-02  1.7479e-02  4.2544e-03  0:02:26 1867
   134  4.0017e-02  2.1687e-02  1.9085e-02  7.7370e-01  3.9966e-02  1.7576e-02  4.2484e-03  0:01:57 1866
   135  4.0892e-02  2.1636e-02  1.9281e-02  7.9225e-01  4.0839e-02  1.7707e-02  4.2497e-03  0:01:33 1865
   136  4.1822e-02  2.1660e-02  1.9417e-02  8.1160e-01  4.1767e-02  1.7872e-02  4.2567e-03  0:01:15 1864
   137  4.2679e-02  2.1704e-02  1.9516e-02  8.3461e-01  4.2622e-02  1.8019e-02  4.2579e-03  0:07:12 1863
   138  4.3400e-02  2.1797e-02  1.9547e-02  8.5719e-01  4.3340e-02  1.8026e-02  4.2444e-03  0:05:46 1862
   139  4.4083e-02  2.1968e-02  1.9526e-02  8.7888e-01  4.4021e-02  1.7997e-02  4.2267e-03  0:04:36 1861
   140  4.4673e-02  2.2219e-02  1.9443e-02  8.9946e-01  4.4608e-02  1.8029e-02  4.2121e-03  0:03:41 1860
   141  4.5183e-02  2.2498e-02  1.9303e-02  9.1906e-01  4.5116e-02  1.8106e-02  4.2122e-03  0:02:57 1859
   142  4.5742e-02  2.2830e-02  1.9134e-02  9.3898e-01  4.5673e-02  1.8082e-02  4.2147e-03  0:02:21 1858
   143  4.6298e-02  2.3191e-02  1.8940e-02  9.5524e-01  4.6226e-02  1.8052e-02  4.2223e-03  0:01:53 1857

  iter  continuity  x-velocity  y-velocity  z-velocity      energy           k       omega     time/iter
   144  4.6867e-02  2.3586e-02  1.8725e-02  9.7477e-01  4.6793e-02  1.7943e-02  4.2100e-03  0:01:30 1856
   145  4.7360e-02  2.3997e-02  1.8518e-02  9.9744e-01  4.7285e-02  1.7816e-02  4.1860e-03  0:07:23 1855
   146  4.7822e-02  2.4427e-02  1.8287e-02  1.0228e+00  4.7745e-02  1.7656e-02  4.1540e-03  0:05:54 1854
   147  4.8256e-02  2.4871e-02  1.8055e-02  1.0474e+00  4.8178e-02  1.7398e-02  4.1321e-03  0:04:43 1853
   148  4.8684e-02  2.5330e-02  1.7850e-02  1.0651e+00  4.8604e-02  1.7105e-02  4.1039e-03  0:03:47 1852
   149  4.9038e-02  2.5818e-02  1.7678e-02  1.0716e+00  4.8957e-02  1.6772e-02  4.0712e-03  0:03:01 1851
   150  4.9221e-02  2.6306e-02  1.7518e-02  1.0691e+00  4.9139e-02  1.6401e-02  4.0553e-03  0:02:25 1850
   151  4.9183e-02  2.6784e-02  1.7357e-02  1.0698e+00  4.9100e-02  1.6111e-02  4.0184e-03  0:01:56 1849
   152  4.8925e-02  2.7241e-02  1.7190e-02  1.0737e+00  4.8842e-02  1.5862e-02  3.9919e-03  0:01:33 1848
   153  4.8490e-02  2.7675e-02  1.7036e-02  1.0733e+00  4.8408e-02  1.5684e-02  3.9634e-03  0:07:23 1847
   154  4.7939e-02  2.8088e-02  1.6899e-02  1.0762e+00  4.7856e-02  1.5493e-02  3.9368e-03  0:05:55 1846

  iter  continuity  x-velocity  y-velocity  z-velocity      energy           k       omega     time/iter
   155  4.7242e-02  2.8492e-02  1.6791e-02  1.0840e+00  4.7158e-02  1.5262e-02  3.9246e-03  0:04:43 1845
   156  4.6247e-02  2.8885e-02  1.6706e-02  1.0926e+00  4.6163e-02  1.5126e-02  3.9054e-03  0:03:47 1844
   157  4.5196e-02  2.9261e-02  1.6637e-02  1.1010e+00  4.5112e-02  1.4880e-02  3.9004e-03  0:03:01 1843
   158  4.4167e-02  2.9626e-02  1.6569e-02  1.1183e+00  4.4082e-02  1.4681e-02  3.8861e-03  0:02:25 1842
   159  4.3213e-02  2.9984e-02  1.6494e-02  1.1458e+00  4.3129e-02  1.4465e-02  3.8681e-03  0:01:56 1841
   160  4.2366e-02  3.0343e-02  1.6409e-02  1.1746e+00  4.2281e-02  1.4201e-02  3.8375e-03  0:01:33 1840
   161  4.1648e-02  3.0706e-02  1.6321e-02  1.2068e+00  4.1562e-02  1.3953e-02  3.8044e-03  0:07:22 1839
   162  4.1087e-02  3.1057e-02  1.6236e-02  1.2343e+00  4.1001e-02  1.3800e-02  3.7828e-03  0:05:53 1838
   163  4.0700e-02  3.1392e-02  1.6167e-02  1.2626e+00  4.0614e-02  1.3707e-02  3.7662e-03  0:04:42 1837
   164  4.0512e-02  3.1708e-02  1.6121e-02  1.2887e+00  4.0425e-02  1.3577e-02  3.7466e-03  0:03:46 1836
   165  4.0582e-02  3.2003e-02  1.6095e-02  1.3107e+00  4.0495e-02  1.3431e-02  3.7448e-03  0:03:01 1835

  iter  continuity  x-velocity  y-velocity  z-velocity      energy           k       omega     time/iter
   166  4.0892e-02  3.2308e-02  1.6117e-02  1.3197e+00  4.0804e-02  1.3256e-02  3.7335e-03  0:02:24 1834
   167  4.1396e-02  3.2614e-02  1.6180e-02  1.3248e+00  4.1308e-02  1.3119e-02  3.7139e-03  0:01:55 1833
   168  4.2062e-02  3.2917e-02  1.6276e-02  1.3302e+00  4.1974e-02  1.2986e-02  3.7193e-03  0:01:32 1832
   169  4.2924e-02  3.3225e-02  1.6413e-02  1.3362e+00  4.2837e-02  1.2825e-02  3.7030e-03  0:07:20 1831
   170  4.3949e-02  3.3525e-02  1.6597e-02  1.3294e+00  4.3862e-02  1.2600e-02  3.6875e-03  0:05:52 1830
   171  4.5147e-02  3.3827e-02  1.6835e-02  1.3309e+00  4.5060e-02  1.2466e-02  3.6941e-03  0:04:41 1829
   172  4.6455e-02  3.4137e-02  1.7100e-02  1.3308e+00  4.6369e-02  1.2372e-02  3.6862e-03  0:03:45 1828
   173  4.7750e-02  3.4455e-02  1.7389e-02  1.3298e+00  4.7664e-02  1.2319e-02  3.6733e-03  0:03:00 1827
   174  4.8935e-02  3.4769e-02  1.7679e-02  1.3124e+00  4.8849e-02  1.2213e-02  3.6801e-03  0:02:24 1826
   175  4.9988e-02  3.5074e-02  1.7967e-02  1.2980e+00  4.9903e-02  1.2111e-02  3.6697e-03  0:01:55 1825
   176  5.0786e-02  3.5372e-02  1.8267e-02  1.2843e+00  5.0702e-02  1.2091e-02  3.6691e-03  0:01:32 1824

  iter  continuity  x-velocity  y-velocity  z-velocity      energy           k       omega     time/iter
   177  5.1335e-02  3.5663e-02  1.8571e-02  1.2787e+00  5.1252e-02  1.2057e-02  3.6789e-03  0:01:13 1823
   178  5.1628e-02  3.5949e-02  1.8875e-02  1.2811e+00  5.1546e-02  1.2096e-02  3.6746e-03  0:07:03 1822
   179  5.1700e-02  3.6225e-02  1.9177e-02  1.2929e+00  5.1619e-02  1.2201e-02  3.6750e-03  0:05:38 1821
   180  5.1554e-02  3.6481e-02  1.9441e-02  1.3169e+00  5.1475e-02  1.2339e-02  3.6752e-03  0:04:31 1820
   181  5.1188e-02  3.6712e-02  1.9670e-02  1.3505e+00  5.1110e-02  1.2448e-02  3.6542e-03  0:03:36 1819
   182  5.0622e-02  3.6907e-02  1.9874e-02  1.3942e+00  5.0546e-02  1.2503e-02  3.6539e-03  0:02:53 1818
   183  4.9846e-02  3.7060e-02  2.0052e-02  1.4434e+00  4.9772e-02  1.2581e-02  3.6620e-03  0:02:18 1817
   184  4.8889e-02  3.7169e-02  2.0235e-02  1.4899e+00  4.8816e-02  1.2742e-02  3.6556e-03  0:01:51 1816
   185  4.7838e-02  3.7220e-02  2.0397e-02  1.5377e+00  4.7768e-02  1.2796e-02  3.6359e-03  0:01:28 1815
   186  4.6564e-02  3.7204e-02  2.0532e-02  1.5888e+00  4.6496e-02  1.2826e-02  3.6458e-03  0:07:13 1814
   187  4.5000e-02  3.7114e-02  2.0591e-02  1.6385e+00  4.4935e-02  1.2907e-02  3.6461e-03  0:05:47 1813

  iter  continuity  x-velocity  y-velocity  z-velocity      energy           k       omega     time/iter
   188  4.3148e-02  3.6931e-02  2.0562e-02  1.6813e+00  4.3085e-02  1.2912e-02  3.6267e-03  0:04:37 1812
   189  4.1061e-02  3.6644e-02  2.0482e-02  1.7376e+00  4.1002e-02  1.2949e-02  3.6105e-03  0:03:42 1811
   190  3.8728e-02  3.6237e-02  2.0354e-02  1.7606e+00  3.8672e-02  1.2977e-02  3.6082e-03  0:02:57 1810
   191  3.6380e-02  3.5713e-02  2.0195e-02  1.7513e+00  3.6328e-02  1.3023e-02  3.5892e-03  0:02:22 1809
   192  3.4220e-02  3.5081e-02  2.0015e-02  1.7605e+00  3.4170e-02  1.2981e-02  3.5680e-03  0:01:53 1808
   193  3.2494e-02  3.4340e-02  1.9823e-02  1.7687e+00  3.2447e-02  1.2992e-02  3.5634e-03  0:01:31 1807
   194  3.1400e-02  3.3498e-02  1.9630e-02  1.7877e+00  3.1355e-02  1.2909e-02  3.5644e-03  0:01:12 1806
   195  3.0803e-02  3.2558e-02  1.9429e-02  1.8191e+00  3.0759e-02  1.2806e-02  3.5712e-03  0:06:59 1805
   196  3.0259e-02  3.1529e-02  1.9213e-02  1.8464e+00  3.0217e-02  1.2712e-02  3.5640e-03  0:05:35 1804
   197  2.9377e-02  3.0413e-02  1.8967e-02  1.8634e+00  2.9338e-02  1.2523e-02  3.5462e-03  0:04:28 1803
   198  2.8152e-02  2.9225e-02  1.8706e-02  1.8519e+00  2.8116e-02  1.2315e-02  3.5259e-03  0:03:34 1802

  iter  continuity  x-velocity  y-velocity  z-velocity      energy           k       omega     time/iter
   199  2.6750e-02  2.7984e-02  1.8470e-02  1.8149e+00  2.6718e-02  1.2133e-02  3.4993e-03  0:02:51 1801
   200  2.4935e-02  2.6705e-02  1.8283e-02  1.7614e+00  2.4907e-02  1.1937e-02  3.4753e-03  0:02:17 1800
   201  2.2792e-02  2.5409e-02  1.8163e-02  1.7029e+00  2.2769e-02  1.1739e-02  3.4648e-03  0:01:49 1799
   202  2.0157e-02  2.4121e-02  1.8133e-02  1.6445e+00  2.0138e-02  1.1521e-02  3.4418e-03  0:01:28 1798
   203  1.7345e-02  2.2850e-02  1.8188e-02  1.5975e+00  1.7329e-02  1.1258e-02  3.4225e-03  0:07:09 1797
   204  1.5094e-02  2.1611e-02  1.8330e-02  1.5690e+00  1.5080e-02  1.1044e-02  3.3934e-03  0:05:43 1796
   205  1.3877e-02  2.0418e-02  1.8546e-02  1.5574e+00  1.3863e-02  1.0815e-02  3.3559e-03  0:04:34 1795
   206  1.3210e-02  1.9289e-02  1.8806e-02  1.5667e+00  1.3193e-02  1.0599e-02  3.3135e-03  0:03:39 1794
   207  1.2636e-02  1.8225e-02  1.9094e-02  1.5774e+00  1.2617e-02  1.0399e-02  3.2686e-03  0:02:55 1793
   208  1.2364e-02  1.7230e-02  1.9383e-02  1.5819e+00  1.2341e-02  1.0254e-02  3.2225e-03  0:02:20 1792
   209  1.2063e-02  1.6294e-02  1.9645e-02  1.5668e+00  1.2037e-02  1.0144e-02  3.1766e-03  0:01:52 1791

  iter  continuity  x-velocity  y-velocity  z-velocity      energy           k       omega     time/iter
   210  1.1883e-02  1.5427e-02  1.9872e-02  1.5397e+00  1.1854e-02  1.0028e-02  3.1478e-03  0:01:30 1790
   211  1.1925e-02  1.4648e-02  2.0084e-02  1.5197e+00  1.1892e-02  9.9166e-03  3.1129e-03  0:07:10 1789
   212  1.2100e-02  1.3955e-02  2.0283e-02  1.5059e+00  1.2063e-02  9.8040e-03  3.0633e-03  0:05:43 1788
   213  1.2287e-02  1.3365e-02  2.0465e-02  1.4961e+00  1.2247e-02  9.7073e-03  3.0296e-03  0:04:35 1787
   214  1.2615e-02  1.2889e-02  2.0626e-02  1.4918e+00  1.2571e-02  9.6161e-03  2.9978e-03  0:03:40 1786
   215  1.2996e-02  1.2509e-02  2.0757e-02  1.4986e+00  1.2950e-02  9.5077e-03  2.9550e-03  0:02:56 1785
   216  1.3507e-02  1.2222e-02  2.0856e-02  1.5090e+00  1.3458e-02  9.4463e-03  2.9254e-03  0:02:20 1784
   217  1.4138e-02  1.2035e-02  2.0928e-02  1.5202e+00  1.4087e-02  9.3660e-03  2.9079e-03  0:01:52 1783
   218  1.4870e-02  1.1932e-02  2.0973e-02  1.5292e+00  1.4817e-02  9.2538e-03  2.8835e-03  0:01:30 1782
   219  1.5693e-02  1.1891e-02  2.0985e-02  1.5377e+00  1.5638e-02  9.1753e-03  2.8608e-03  0:01:12 1781
   220  1.6609e-02  1.1900e-02  2.0971e-02  1.5434e+00  1.6552e-02  9.1144e-03  2.8442e-03  0:06:53 1780

  iter  continuity  x-velocity  y-velocity  z-velocity      energy           k       omega     time/iter
   221  1.7531e-02  1.1952e-02  2.0929e-02  1.5404e+00  1.7472e-02  9.0545e-03  2.8261e-03  0:05:31 1779
   222  1.8422e-02  1.2059e-02  2.0857e-02  1.5417e+00  1.8362e-02  8.9578e-03  2.8077e-03  0:04:24 1778
   223  1.9293e-02  1.2203e-02  2.0773e-02  1.5367e+00  1.9231e-02  8.8597e-03  2.7973e-03  0:03:31 1777
   224  2.0097e-02  1.2381e-02  2.0678e-02  1.5279e+00  2.0034e-02  8.7776e-03  2.7755e-03  0:02:49 1776
   225  2.0853e-02  1.2578e-02  2.0575e-02  1.5155e+00  2.0788e-02  8.7063e-03  2.7569e-03  0:02:15 1775
   226  2.1552e-02  1.2794e-02  2.0465e-02  1.5014e+00  2.1486e-02  8.6264e-03  2.7525e-03  0:01:48 1774
   227  2.2184e-02  1.3028e-02  2.0350e-02  1.4898e+00  2.2117e-02  8.5320e-03  2.7511e-03  0:01:26 1773
   228  2.2747e-02  1.3280e-02  2.0233e-02  1.4775e+00  2.2679e-02  8.4725e-03  2.7410e-03  0:07:03 1772
   229  2.3255e-02  1.3548e-02  2.0117e-02  1.4668e+00  2.3187e-02  8.3988e-03  2.7303e-03  0:05:39 1771
   230  2.3711e-02  1.3824e-02  2.0004e-02  1.4581e+00  2.3642e-02  8.2900e-03  2.7232e-03  0:04:31 1770
   231  2.4095e-02  1.4117e-02  1.9895e-02  1.4460e+00  2.4026e-02  8.1513e-03  2.6986e-03  0:03:36 1769

  iter  continuity  x-velocity  y-velocity  z-velocity      energy           k       omega     time/iter
   232  2.4389e-02  1.4424e-02  1.9790e-02  1.4415e+00  2.4320e-02  8.0172e-03  2.6739e-03  0:02:53 1768
   233  2.4651e-02  1.4746e-02  1.9689e-02  1.4398e+00  2.4581e-02  7.9060e-03  2.6547e-03  0:02:18 1767
   234  2.4927e-02  1.5086e-02  1.9590e-02  1.4340e+00  2.4858e-02  7.7998e-03  2.6393e-03  0:07:44 1766
   235  2.5203e-02  1.5438e-02  1.9493e-02  1.4296e+00  2.5133e-02  7.6994e-03  2.6348e-03  0:06:11 1765
   236  2.5482e-02  1.5786e-02  1.9395e-02  1.4282e+00  2.5413e-02  7.5722e-03  2.6216e-03  0:04:57 1764
   237  2.5760e-02  1.6137e-02  1.9305e-02  1.4284e+00  2.5691e-02  7.4539e-03  2.6016e-03  0:03:57 1763
   238  2.6048e-02  1.6481e-02  1.9223e-02  1.4288e+00  2.5979e-02  7.3458e-03  2.5986e-03  0:03:10 1762
   239  2.6352e-02  1.6818e-02  1.9153e-02  1.4292e+00  2.6283e-02  7.2411e-03  2.5895e-03  0:02:32 1761
   240  2.6680e-02  1.7146e-02  1.9090e-02  1.4399e+00  2.6612e-02  7.1467e-03  2.5730e-03  0:02:01 1760
   241  2.7022e-02  1.7461e-02  1.9035e-02  1.4549e+00  2.6954e-02  7.0480e-03  2.5642e-03  0:01:37 1759
   242  2.7368e-02  1.7760e-02  1.8990e-02  1.4855e+00  2.7300e-02  6.9639e-03  2.5538e-03  0:07:09 1758

  iter  continuity  x-velocity  y-velocity  z-velocity      energy           k       omega     time/iter
   243  2.7706e-02  1.8048e-02  1.8951e-02  1.5218e+00  2.7639e-02  6.8825e-03  2.5618e-03  0:05:43 1757
   244  2.8037e-02  1.8321e-02  1.8921e-02  1.5670e+00  2.7971e-02  6.8261e-03  2.5780e-03  0:04:34 1756
   245  2.8372e-02  1.8587e-02  1.8901e-02  1.6154e+00  2.8306e-02  6.7758e-03  2.5751e-03  0:03:39 1755
   246  2.8717e-02  1.8849e-02  1.8893e-02  1.6680e+00  2.8651e-02  6.7303e-03  2.5868e-03  0:02:55 1754
   247  2.9090e-02  1.9112e-02  1.8899e-02  1.7217e+00  2.9026e-02  6.7064e-03  2.6054e-03  0:02:20 1753
   248  2.9496e-02  1.9376e-02  1.8926e-02  1.7765e+00  2.9432e-02  6.7026e-03  2.6118e-03  0:01:52 1752
   249  2.9934e-02  1.9647e-02  1.8968e-02  1.8401e+00  2.9870e-02  6.7072e-03  2.6219e-03  0:01:30 1751
   250  3.0425e-02  1.9924e-02  1.9035e-02  1.8984e+00  3.0362e-02  6.7066e-03  2.6536e-03  0:07:02 1750
   251  3.0995e-02  2.0214e-02  1.9130e-02  1.9435e+00  3.0932e-02  6.7145e-03  2.6768e-03  0:05:37 1749
   252  3.1648e-02  2.0511e-02  1.9253e-02  1.9838e+00  3.1586e-02  6.7193e-03  2.6849e-03  0:04:30 1748
   253  3.2382e-02  2.0807e-02  1.9406e-02  2.0285e+00  3.2321e-02  6.7208e-03  2.7042e-03  0:03:36 1747

  iter  continuity  x-velocity  y-velocity  z-velocity      energy           k       omega     time/iter
   254  3.3164e-02  2.1099e-02  1.9590e-02  2.0804e+00  3.3103e-02  6.7423e-03  2.7610e-03  0:02:52 1746
   255  3.3993e-02  2.1390e-02  1.9805e-02  2.1388e+00  3.3932e-02  6.7649e-03  2.7948e-03  0:02:18 1745
   256  3.4840e-02  2.1679e-02  2.0034e-02  2.2088e+00  3.4779e-02  6.7802e-03  2.8433e-03  0:01:50 1744
   257  3.5670e-02  2.1957e-02  2.0267e-02  2.2715e+00  3.5610e-02  6.8042e-03  2.8998e-03  0:01:28 1743
   258  3.6459e-02  2.2225e-02  2.0500e-02  2.3343e+00  3.6399e-02  6.8416e-03  2.9288e-03  0:01:10 1742
   259  3.7160e-02  2.2487e-02  2.0730e-02  2.3943e+00  3.7101e-02  6.8783e-03  2.9908e-03  0:06:45 1741
   260  3.7745e-02  2.2736e-02  2.0948e-02  2.4461e+00  3.7687e-02  6.9235e-03  2.9978e-03  0:05:23 1740
   261  3.8202e-02  2.2973e-02  2.1144e-02  2.4800e+00  3.8146e-02  6.9574e-03  2.9887e-03  0:04:19 1739
   262  3.8518e-02  2.3195e-02  2.1340e-02  2.5091e+00  3.8462e-02  6.9939e-03  3.0034e-03  0:03:27 1738
   263  3.8637e-02  2.3416e-02  2.1543e-02  2.5250e+00  3.8583e-02  7.0301e-03  3.0157e-03  0:02:45 1737
   264  3.8507e-02  2.3624e-02  2.1758e-02  2.5219e+00  3.8455e-02  7.0477e-03  3.0257e-03  0:02:12 1736

  iter  continuity  x-velocity  y-velocity  z-velocity      energy           k       omega     time/iter
   265  3.8238e-02  2.3828e-02  2.2011e-02  2.4990e+00  3.8187e-02  7.0573e-03  3.0608e-03  0:01:46 1735
   266  3.7845e-02  2.4008e-02  2.2294e-02  2.4509e+00  3.7795e-02  7.0831e-03  3.0702e-03  0:01:24 1734
   267  3.7378e-02  2.4155e-02  2.2591e-02  2.3992e+00  3.7330e-02  7.1122e-03  3.0871e-03  0:06:54 1733
   268  3.6610e-02  2.4276e-02  2.2901e-02  2.3542e+00  3.6564e-02  7.1600e-03  3.0606e-03  0:05:31 1732
   269  3.5506e-02  2.4370e-02  2.3265e-02  2.2981e+00  3.5463e-02  7.1944e-03  3.0413e-03  0:04:25 1731
   270  3.4140e-02  2.4447e-02  2.3631e-02  2.2460e+00  3.4099e-02  7.2335e-03  3.0452e-03  0:03:32 1730
   271  3.2767e-02  2.4499e-02  2.4073e-02  2.1758e+00  3.2728e-02  7.2700e-03  3.0444e-03  0:02:49 1729
   272  3.1425e-02  2.4505e-02  2.4576e-02  2.1121e+00  3.1389e-02  7.2911e-03  3.0428e-03  0:02:15 1728
   273  3.0101e-02  2.4488e-02  2.5079e-02  2.0567e+00  3.0066e-02  7.3268e-03  3.0333e-03  0:01:48 1727
   274  2.8766e-02  2.4451e-02  2.5534e-02  1.9981e+00  2.8732e-02  7.3602e-03  3.0325e-03  0:01:27 1726
   275  2.7391e-02  2.4398e-02  2.6002e-02  1.9550e+00  2.7358e-02  7.4195e-03  3.0098e-03  0:06:54 1725

  iter  continuity  x-velocity  y-velocity  z-velocity      energy           k       omega     time/iter
   276  2.6034e-02  2.4330e-02  2.6487e-02  1.9233e+00  2.6001e-02  7.4782e-03  2.9658e-03  0:05:31 1724
   277  2.4629e-02  2.4246e-02  2.6945e-02  1.9045e+00  2.4596e-02  7.5183e-03  2.9516e-03  0:04:25 1723
   278  2.3306e-02  2.4162e-02  2.7473e-02  1.9013e+00  2.3273e-02  7.5247e-03  2.9542e-03  0:03:32 1722
   279  2.1939e-02  2.4086e-02  2.7988e-02  1.9035e+00  2.1905e-02  7.5232e-03  2.9382e-03  0:02:49 1721
   280  2.0466e-02  2.4032e-02  2.8466e-02  1.9075e+00  2.0430e-02  7.5446e-03  2.9125e-03  0:02:15 1720
   281  1.8766e-02  2.3985e-02  2.8945e-02  1.9075e+00  1.8729e-02  7.5766e-03  2.9116e-03  0:01:48 1719
   282  1.7112e-02  2.3980e-02  2.9458e-02  1.9130e+00  1.7071e-02  7.5835e-03  2.8645e-03  0:01:27 1718
   283  1.5829e-02  2.4008e-02  2.9979e-02  1.9288e+00  1.5785e-02  7.5647e-03  2.8229e-03  0:01:09 1717
   284  1.4646e-02  2.4044e-02  3.0434e-02  1.9410e+00  1.4598e-02  7.5662e-03  2.8147e-03  0:06:38 1716
   285  1.3570e-02  2.4060e-02  3.0878e-02  1.9473e+00  1.3519e-02  7.5672e-03  2.8454e-03  0:05:19 1715
   286  1.3160e-02  2.4096e-02  3.1336e-02  1.9516e+00  1.3107e-02  7.5633e-03  2.8570e-03  0:04:15 1714

  iter  continuity  x-velocity  y-velocity  z-velocity      energy           k       omega     time/iter
   287  1.2783e-02  2.4044e-02  3.1814e-02  1.9500e+00  1.2727e-02  7.5688e-03  2.8572e-03  0:03:24 1713
   288  1.2319e-02  2.3976e-02  3.2353e-02  1.9368e+00  1.2260e-02  7.6269e-03  2.8523e-03  0:02:43 1712
   289  1.2187e-02  2.3891e-02  3.2917e-02  1.9188e+00  1.2126e-02  7.6781e-03  2.8520e-03  0:02:10 1711
   290  1.2227e-02  2.3783e-02  3.3485e-02  1.8945e+00  1.2165e-02  7.7015e-03  2.8296e-03  0:01:44 1710
   291  1.2484e-02  2.3676e-02  3.4069e-02  1.8674e+00  1.2422e-02  7.7299e-03  2.8167e-03  0:01:23 1709
   292  1.2955e-02  2.3583e-02  3.4658e-02  1.8361e+00  1.2895e-02  7.7510e-03  2.8238e-03  0:06:48 1708
   293  1.3540e-02  2.3512e-02  3.5256e-02  1.8051e+00  1.3482e-02  7.7965e-03  2.8548e-03  0:05:26 1707
   294  1.4193e-02  2.3463e-02  3.5871e-02  1.7709e+00  1.4136e-02  7.8576e-03  2.8729e-03  0:04:21 1706
   295  1.4934e-02  2.3452e-02  3.6482e-02  1.7307e+00  1.4880e-02  7.8921e-03  2.8751e-03  0:03:29 1705
   296  1.5697e-02  2.3463e-02  3.7062e-02  1.6879e+00  1.5645e-02  7.8920e-03  2.8833e-03  0:02:47 1704
   297  1.6368e-02  2.3501e-02  3.7613e-02  1.6456e+00  1.6317e-02  7.8838e-03  2.9096e-03  0:02:13 1703

  iter  continuity  x-velocity  y-velocity  z-velocity      energy           k       omega     time/iter
   298  1.6965e-02  2.3561e-02  3.8136e-02  1.6064e+00  1.6916e-02  7.9517e-03  2.9358e-03  0:01:47 1702
   299  1.7595e-02  2.3652e-02  3.8644e-02  1.5704e+00  1.7547e-02  8.0036e-03  2.9518e-03  0:01:25 1701
   300  1.8133e-02  2.3762e-02  3.9150e-02  1.5298e+00  1.8087e-02  8.0281e-03  2.9597e-03  0:01:08 1700
   301  1.8614e-02  2.3879e-02  3.9674e-02  1.4906e+00  1.8569e-02  8.1093e-03  2.9792e-03  0:06:34 1699
   302  1.9013e-02  2.3998e-02  4.0208e-02  1.4534e+00  1.8969e-02  8.1660e-03  2.9989e-03  0:05:15 1698
   303  1.9348e-02  2.4119e-02  4.0732e-02  1.4186e+00  1.9305e-02  8.2348e-03  3.0262e-03  0:04:12 1697
   304  1.9615e-02  2.4242e-02  4.1251e-02  1.3867e+00  1.9573e-02  8.2913e-03  3.0434e-03  0:03:22 1696
   305  1.9809e-02  2.4376e-02  4.1771e-02  1.3576e+00  1.9767e-02  8.3455e-03  3.0616e-03  0:02:41 1695
   306  1.9934e-02  2.4510e-02  4.2294e-02  1.3395e+00  1.9893e-02  8.4068e-03  3.0822e-03  0:02:09 1694
   307  2.0023e-02  2.4653e-02  4.2812e-02  1.3278e+00  1.9982e-02  8.4830e-03  3.0994e-03  0:01:43 1693
   308  2.0036e-02  2.4800e-02  4.3322e-02  1.3177e+00  1.9996e-02  8.5774e-03  3.1136e-03  0:01:22 1692

  iter  continuity  x-velocity  y-velocity  z-velocity      energy           k       omega     time/iter
   309  2.0002e-02  2.4956e-02  4.3798e-02  1.3093e+00  1.9962e-02  8.6163e-03  3.1351e-03  0:06:44 1691
   310  1.9956e-02  2.5117e-02  4.4245e-02  1.3091e+00  1.9917e-02  8.6100e-03  3.1457e-03  0:05:23 1690
   311  1.9842e-02  2.5286e-02  4.4656e-02  1.3090e+00  1.9803e-02  8.6109e-03  3.1545e-03  0:04:18 1689
   312  1.9682e-02  2.5463e-02  4.5061e-02  1.3125e+00  1.9644e-02  8.6026e-03  3.1585e-03  0:03:27 1688
   313  1.9511e-02  2.5639e-02  4.5475e-02  1.3172e+00  1.9474e-02  8.6189e-03  3.1620e-03  0:02:45 1687
   314  1.9360e-02  2.5821e-02  4.5883e-02  1.3268e+00  1.9323e-02  8.6493e-03  3.1677e-03  0:02:12 1686
   315  1.9220e-02  2.6018e-02  4.6293e-02  1.3384e+00  1.9184e-02  8.6625e-03  3.1788e-03  0:01:46 1685
   316  1.9134e-02  2.6225e-02  4.6702e-02  1.3525e+00  1.9098e-02  8.6873e-03  3.1804e-03  0:01:24 1684
   317  1.9083e-02  2.6443e-02  4.7098e-02  1.3643e+00  1.9047e-02  8.6677e-03  3.1767e-03  0:01:07 1683
   318  1.9040e-02  2.6672e-02  4.7487e-02  1.3818e+00  1.9005e-02  8.6350e-03  3.1726e-03  0:06:30 1682
   319  1.9005e-02  2.6911e-02  4.7879e-02  1.4058e+00  1.8970e-02  8.6130e-03  3.1652e-03  0:05:12 1681

  iter  continuity  x-velocity  y-velocity  z-velocity      energy           k       omega     time/iter
   320  1.8947e-02  2.7145e-02  4.8280e-02  1.4317e+00  1.8912e-02  8.5684e-03  3.1506e-03  0:04:10 1680
   321  1.8889e-02  2.7377e-02  4.8677e-02  1.4605e+00  1.8855e-02  8.5750e-03  3.1369e-03  0:03:19 1679
   322  1.8872e-02  2.7610e-02  4.9058e-02  1.4870e+00  1.8838e-02  8.5786e-03  3.1164e-03  0:02:40 1678
   323  1.8803e-02  2.7835e-02  4.9423e-02  1.5147e+00  1.8769e-02  8.5462e-03  3.1051e-03  0:02:08 1677
   324  1.8675e-02  2.8054e-02  4.9778e-02  1.5411e+00  1.8641e-02  8.5238e-03  3.0805e-03  0:01:42 1676
   325  1.8565e-02  2.8255e-02  5.0124e-02  1.5772e+00  1.8532e-02  8.4903e-03  3.0595e-03  0:01:22 1675
   326  1.8468e-02  2.8448e-02  5.0461e-02  1.6202e+00  1.8435e-02  8.4845e-03  3.0459e-03  0:06:40 1674
   327  1.8318e-02  2.8623e-02  5.0769e-02  1.6615e+00  1.8284e-02  8.4563e-03  3.0268e-03  0:05:20 1673
   328  1.8076e-02  2.8778e-02  5.1055e-02  1.7073e+00  1.8043e-02  8.4131e-03  3.0012e-03  0:04:16 1672
   329  1.7862e-02  2.8923e-02  5.1320e-02  1.7637e+00  1.7829e-02  8.3766e-03  2.9713e-03  0:03:24 1671
   330  1.7641e-02  2.9055e-02  5.1561e-02  1.8170e+00  1.7608e-02  8.3608e-03  2.9464e-03  0:02:43 1670

  iter  continuity  x-velocity  y-velocity  z-velocity      energy           k       omega     time/iter
   331  1.7405e-02  2.9170e-02  5.1776e-02  1.8805e+00  1.7371e-02  8.3321e-03  2.9243e-03  0:02:11 1669
   332  1.7158e-02  2.9267e-02  5.1962e-02  1.9381e+00  1.7124e-02  8.3140e-03  2.9117e-03  0:01:44 1668
   333  1.6909e-02  2.9352e-02  5.2108e-02  2.0013e+00  1.6876e-02  8.2814e-03  2.8862e-03  0:01:24 1667
   334  1.6613e-02  2.9419e-02  5.2229e-02  2.0794e+00  1.6580e-02  8.2377e-03  2.8558e-03  0:06:40 1666
   335  1.6324e-02  2.9454e-02  5.2338e-02  2.1482e+00  1.6290e-02  8.1920e-03  2.8353e-03  0:05:20 1665
   336  1.6067e-02  2.9481e-02  5.2420e-02  2.2537e+00  1.6033e-02  8.1844e-03  2.8136e-03  0:04:16 1664
   337  1.5935e-02  2.9497e-02  5.2482e-02  2.3633e+00  1.5901e-02  8.1673e-03  2.7840e-03  0:03:24 1663
   338  1.5815e-02  2.9496e-02  5.2520e-02  2.4484e+00  1.5780e-02  8.1411e-03  2.7599e-03  0:02:43 1662
   339  1.5752e-02  2.9480e-02  5.2506e-02  2.5230e+00  1.5716e-02  8.0931e-03  2.7286e-03  0:02:11 1661
   340  1.5725e-02  2.9471e-02  5.2468e-02  2.5707e+00  1.5688e-02  8.0526e-03  2.7082e-03  0:01:44 1660
   341  1.5753e-02  2.9459e-02  5.2357e-02  2.6089e+00  1.5715e-02  7.9993e-03  2.6870e-03  0:01:24 1659

  iter  continuity  x-velocity  y-velocity  z-velocity      energy           k       omega     time/iter
   342  1.5823e-02  2.9447e-02  5.2219e-02  2.6175e+00  1.5784e-02  7.9498e-03  2.6547e-03  0:06:38 1658
   343  1.5922e-02  2.9437e-02  5.2075e-02  2.6666e+00  1.5881e-02  7.9173e-03  2.6326e-03  0:05:19 1657
   344  1.6029e-02  2.9417e-02  5.1909e-02  2.6869e+00  1.5986e-02  7.8845e-03  2.5999e-03  0:04:15 1656
   345  1.6134e-02  2.9381e-02  5.1725e-02  2.7350e+00  1.6090e-02  7.8445e-03  2.5766e-03  0:03:24 1655
   346  1.6241e-02  2.9321e-02  5.1520e-02  2.7751e+00  1.6196e-02  7.8018e-03  2.5546e-03  0:02:43 1654
   347  1.6397e-02  2.9269e-02  5.1293e-02  2.7413e+00  1.6350e-02  7.7560e-03  2.5231e-03  0:02:10 1653
   348  1.6534e-02  2.9200e-02  5.1053e-02  2.7532e+00  1.6485e-02  7.7007e-03  2.5068e-03  0:01:44 1652
   349  1.6631e-02  2.9119e-02  5.0795e-02  2.6767e+00  1.6580e-02  7.6356e-03  2.4882e-03  0:01:23 1651
   350  1.6663e-02  2.9022e-02  5.0540e-02  2.7029e+00  1.6610e-02  7.5799e-03  2.4693e-03  0:06:37 1650
   351  1.6650e-02  2.8934e-02  5.0283e-02  2.6879e+00  1.6595e-02  7.5247e-03  2.4474e-03  0:05:17 1649
   352  1.6568e-02  2.8853e-02  5.0025e-02  2.7240e+00  1.6510e-02  7.4646e-03  2.4302e-03  0:04:13 1648

  iter  continuity  x-velocity  y-velocity  z-velocity      energy           k       omega     time/iter
   353  1.6482e-02  2.8783e-02  4.9777e-02  2.7443e+00  1.6422e-02  7.4006e-03  2.4032e-03  0:03:23 1647
   354  1.6396e-02  2.8731e-02  4.9546e-02  2.7787e+00  1.6335e-02  7.3387e-03  2.3811e-03  0:02:42 1646
   355  1.6326e-02  2.8701e-02  4.9334e-02  2.8298e+00  1.6262e-02  7.2800e-03  2.3636e-03  0:02:10 1645
   356  1.6226e-02  2.8674e-02  4.9135e-02  2.8696e+00  1.6160e-02  7.2212e-03  2.3440e-03  0:01:44 1644
   357  1.6180e-02  2.8686e-02  4.8937e-02  2.9083e+00  1.6113e-02  7.1573e-03  2.3218e-03  0:01:23 1643
   358  1.6209e-02  2.8736e-02  4.8740e-02  2.9416e+00  1.6139e-02  7.0923e-03  2.3087e-03  0:06:35 1642
   359  1.6297e-02  2.8817e-02  4.8546e-02  2.9433e+00  1.6225e-02  7.0306e-03  2.2910e-03  0:05:15 1641
   360  1.6384e-02  2.8921e-02  4.8345e-02  2.9379e+00  1.6310e-02  6.9752e-03  2.2743e-03  0:04:12 1640
   361  1.6524e-02  2.9055e-02  4.8141e-02  2.9274e+00  1.6449e-02  6.9240e-03  2.2615e-03  0:03:22 1639
   362  1.6642e-02  2.9215e-02  4.7919e-02  2.8940e+00  1.6564e-02  6.8716e-03  2.2442e-03  0:02:41 1638
   363  1.6830e-02  2.9399e-02  4.7698e-02  2.8895e+00  1.6750e-02  6.8148e-03  2.2260e-03  0:02:09 1637

  iter  continuity  x-velocity  y-velocity  z-velocity      energy           k       omega     time/iter
   364  1.7058e-02  2.9611e-02  4.7481e-02  2.8739e+00  1.6976e-02  6.7550e-03  2.2070e-03  0:01:43 1636
   365  1.7301e-02  2.9841e-02  4.7264e-02  2.8723e+00  1.7217e-02  6.7005e-03  2.1898e-03  0:01:22 1635
   366  1.7588e-02  3.0089e-02  4.7052e-02  2.8911e+00  1.7502e-02  6.6518e-03  2.1761e-03  0:01:06 1634
   367  1.7970e-02  3.0346e-02  4.6853e-02  2.8971e+00  1.7883e-02  6.6012e-03  2.1591e-03  0:06:19 1633
   368  1.8458e-02  3.0604e-02  4.6662e-02  2.9317e+00  1.8368e-02  6.5493e-03  2.1383e-03  0:05:03 1632
   369  1.9089e-02  3.0876e-02  4.6474e-02  2.9754e+00  1.8998e-02  6.4967e-03  2.1236e-03  0:04:02 1631
   370  1.9929e-02  3.1161e-02  4.6274e-02  3.0501e+00  1.9837e-02  6.4484e-03  2.1088e-03  0:03:14 1630
   371  2.1009e-02  3.1449e-02  4.6075e-02  3.0920e+00  2.0916e-02  6.4002e-03  2.0966e-03  0:02:35 1629
   372  2.2243e-02  3.1739e-02  4.5881e-02  3.1249e+00  2.2148e-02  6.3528e-03  2.0846e-03  0:02:04 1628
   373  2.3609e-02  3.2028e-02  4.5685e-02  3.2101e+00  2.3512e-02  6.3045e-03  2.0786e-03  0:01:39 1627
   374  2.5284e-02  3.2316e-02  4.5490e-02  3.3087e+00  2.5185e-02  6.2490e-03  2.0741e-03  0:01:19 1626

  iter  continuity  x-velocity  y-velocity  z-velocity      energy           k       omega     time/iter
   375  2.6742e-02  3.2599e-02  4.5276e-02  3.3642e+00  2.6641e-02  6.1888e-03  2.0714e-03  0:06:28 1625
   376  2.8148e-02  3.2867e-02  4.5060e-02  3.3660e+00  2.8045e-02  6.1296e-03  2.0669e-03  0:05:10 1624
   377  2.9397e-02  3.3117e-02  4.4841e-02  3.3455e+00  2.9292e-02  6.0715e-03  2.0652e-03  0:04:08 1623
   378  3.0369e-02  3.3343e-02  4.4604e-02  3.3311e+00  3.0264e-02  6.0156e-03  2.0657e-03  0:03:18 1622
   379  3.0952e-02  3.3546e-02  4.4344e-02  3.2960e+00  3.0846e-02  5.9584e-03  2.0549e-03  0:02:39 1621
   380  3.1607e-02  3.3716e-02  4.4045e-02  3.2874e+00  3.1501e-02  5.9031e-03  2.0541e-03  0:02:07 1620
   381  3.1702e-02  3.3855e-02  4.3770e-02  3.2809e+00  3.1596e-02  5.8454e-03  2.0598e-03  0:01:41 1619
   382  3.1549e-02  3.3962e-02  4.3481e-02  3.2097e+00  3.1443e-02  5.7986e-03  2.0646e-03  0:01:21 1618
   383  3.1232e-02  3.4048e-02  4.3189e-02  3.1164e+00  3.1127e-02  5.7565e-03  2.0657e-03  0:06:28 1617
   384  3.0711e-02  3.4102e-02  4.2888e-02  3.0599e+00  3.0608e-02  5.7162e-03  2.0686e-03  0:05:10 1616
   385  3.0131e-02  3.4130e-02  4.2590e-02  3.0397e+00  3.0030e-02  5.6778e-03  2.0701e-03  0:04:08 1615

  iter  continuity  x-velocity  y-velocity  z-velocity      energy           k       omega     time/iter
   386  2.9626e-02  3.4138e-02  4.2304e-02  3.0573e+00  2.9526e-02  5.6372e-03  2.0719e-03  0:03:18 1614
   387  2.9111e-02  3.4130e-02  4.2036e-02  3.0991e+00  2.9013e-02  5.5954e-03  2.0779e-03  0:02:39 1613
   388  2.8513e-02  3.4111e-02  4.1776e-02  3.1443e+00  2.8418e-02  5.5551e-03  2.0800e-03  0:02:07 1612
   389  2.7928e-02  3.4085e-02  4.1525e-02  3.2042e+00  2.7835e-02  5.5183e-03  2.0784e-03  0:01:41 1611
   390  2.7374e-02  3.4049e-02  4.1296e-02  3.2589e+00  2.7283e-02  5.4793e-03  2.0766e-03  0:01:21 1610
   391  2.6907e-02  3.3995e-02  4.1077e-02  3.2988e+00  2.6819e-02  5.4389e-03  2.0716e-03  0:01:05 1609
   392  2.6590e-02  3.3930e-02  4.0870e-02  3.3307e+00  2.6504e-02  5.3886e-03  2.0638e-03  0:06:13 1608
   393  2.6353e-02  3.3855e-02  4.0674e-02  3.3881e+00  2.6267e-02  5.3422e-03  2.0552e-03  0:04:59 1607
   394  2.6064e-02  3.3775e-02  4.0460e-02  3.4337e+00  2.5981e-02  5.2989e-03  2.0446e-03  0:03:59 1606
   395  2.5756e-02  3.3694e-02  4.0240e-02  3.4910e+00  2.5675e-02  5.2479e-03  2.0389e-03  0:03:11 1605
   396  2.5483e-02  3.3618e-02  4.0004e-02  3.5397e+00  2.5403e-02  5.1917e-03  2.0362e-03  0:02:33 1604

  iter  continuity  x-velocity  y-velocity  z-velocity      energy           k       omega     time/iter
   397  2.5280e-02  3.3542e-02  3.9752e-02  3.5812e+00  2.5202e-02  5.1407e-03  2.0304e-03  0:02:02 1603
   398  2.5011e-02  3.3470e-02  3.9492e-02  3.6429e+00  2.4934e-02  5.0894e-03  2.0310e-03  0:01:38 1602
   399  2.4744e-02  3.3398e-02  3.9225e-02  3.6451e+00  2.4669e-02  5.0438e-03  2.0259e-03  0:01:18 1601
   400  2.4408e-02  3.3313e-02  3.8953e-02  3.6082e+00  2.4335e-02  5.0046e-03  2.0206e-03  0:06:22 1600
   401  2.4048e-02  3.3206e-02  3.8678e-02  3.5287e+00  2.3977e-02  4.9610e-03  2.0191e-03  0:05:06 1599
   402  2.3622e-02  3.3082e-02  3.8400e-02  3.4117e+00  2.3552e-02  4.9206e-03  2.0107e-03  0:04:04 1598
   403  2.3159e-02  3.2942e-02  3.8130e-02  3.2957e+00  2.3092e-02  4.8810e-03  2.0009e-03  0:03:15 1597
   404  2.2573e-02  3.2791e-02  3.7862e-02  3.2044e+00  2.2507e-02  4.8446e-03  1.9923e-03  0:02:36 1596
   405  2.1853e-02  3.2637e-02  3.7567e-02  3.1247e+00  2.1790e-02  4.8099e-03  1.9851e-03  0:02:05 1595
   406  2.1152e-02  3.2475e-02  3.7281e-02  3.0717e+00  2.1091e-02  4.7807e-03  1.9763e-03  0:01:40 1594
   407  2.0529e-02  3.2304e-02  3.6991e-02  3.0435e+00  2.0470e-02  4.7462e-03  1.9616e-03  0:01:20 1593

  iter  continuity  x-velocity  y-velocity  z-velocity      energy           k       omega     time/iter
   408  1.9949e-02  3.2122e-02  3.6696e-02  3.0132e+00  1.9891e-02  4.7142e-03  1.9455e-03  0:01:04 1592
   409  1.9436e-02  3.1924e-02  3.6412e-02  2.9650e+00  1.9380e-02  4.6798e-03  1.9350e-03  0:06:09 1591
   410  1.8984e-02  3.1701e-02  3.6125e-02  2.9121e+00  1.8930e-02  4.6457e-03  1.9279e-03  0:04:55 1590
   411  1.8541e-02  3.1470e-02  3.5841e-02  2.8643e+00  1.8488e-02  4.6113e-03  1.9192e-03  0:03:56 1589
   412  1.8133e-02  3.1241e-02  3.5549e-02  2.7984e+00  1.8081e-02  4.5799e-03  1.9088e-03  0:03:09 1588
   413  1.7710e-02  3.1011e-02  3.5262e-02  2.7149e+00  1.7659e-02  4.5546e-03  1.8984e-03  0:02:31 1587
   414  1.7268e-02  3.0780e-02  3.4985e-02  2.6261e+00  1.7219e-02  4.5263e-03  1.8867e-03  0:02:01 1586
   415  1.6795e-02  3.0557e-02  3.4720e-02  2.5776e+00  1.6746e-02  4.4973e-03  1.8812e-03  0:01:36 1585
   416  1.6314e-02  3.0344e-02  3.4470e-02  2.5146e+00  1.6267e-02  4.4672e-03  1.8695e-03  0:01:17 1584
   417  1.5825e-02  3.0137e-02  3.4223e-02  2.4637e+00  1.5779e-02  4.4401e-03  1.8549e-03  0:01:02 1583
   418  1.5332e-02  2.9938e-02  3.3981e-02  2.4260e+00  1.5287e-02  4.4162e-03  1.8347e-03  0:06:06 1582

  iter  continuity  x-velocity  y-velocity  z-velocity      energy           k       omega     time/iter
   419  1.4864e-02  2.9747e-02  3.3756e-02  2.4186e+00  1.4821e-02  4.3935e-03  1.8136e-03  0:04:52 1581
   420  1.4396e-02  2.9567e-02  3.3545e-02  2.4295e+00  1.4354e-02  4.3710e-03  1.7927e-03  0:03:54 1580
   421  1.3927e-02  2.9401e-02  3.3346e-02  2.4419e+00  1.3886e-02  4.3440e-03  1.7715e-03  0:03:07 1579
   422  1.3505e-02  2.9248e-02  3.3165e-02  2.4660e+00  1.3465e-02  4.3199e-03  1.7535e-03  0:02:29 1578
   423  1.3059e-02  2.9106e-02  3.2998e-02  2.4947e+00  1.3020e-02  4.2970e-03  1.7465e-03  0:01:59 1577
   424  1.2606e-02  2.8970e-02  3.2857e-02  2.5077e+00  1.2568e-02  4.2745e-03  1.7394e-03  0:01:35 1576
   425  1.2102e-02  2.8837e-02  3.2737e-02  2.5221e+00  1.2066e-02  4.2554e-03  1.7302e-03  0:01:16 1575
   426  1.1541e-02  2.8708e-02  3.2637e-02  2.5346e+00  1.1505e-02  4.2360e-03  1.7210e-03  0:01:01 1574
   427  1.0919e-02  2.8576e-02  3.2559e-02  2.5372e+00  1.0885e-02  4.2138e-03  1.7188e-03  0:00:49 1573
   428  1.0264e-02  2.8440e-02  3.2484e-02  2.5317e+00  1.0232e-02  4.1924e-03  1.7154e-03  0:05:53 1572
   429  9.5935e-03  2.8309e-02  3.2407e-02  2.5199e+00  9.5620e-03  4.1729e-03  1.7129e-03  0:04:43 1571

  iter  continuity  x-velocity  y-velocity  z-velocity      energy           k       omega     time/iter
   430  8.9364e-03  2.8187e-02  3.2331e-02  2.4889e+00  8.9060e-03  4.1597e-03  1.7142e-03  0:03:46 1570
   431  8.3128e-03  2.8075e-02  3.2246e-02  2.4392e+00  8.2834e-03  4.1464e-03  1.7097e-03  0:03:01 1569
   432  7.7341e-03  2.7965e-02  3.2152e-02  2.3899e+00  7.7054e-03  4.1326e-03  1.7044e-03  0:02:24 1568
   433  7.2084e-03  2.7855e-02  3.2048e-02  2.3433e+00  7.1803e-03  4.1197e-03  1.6962e-03  0:01:55 1567
   434  6.7227e-03  2.7745e-02  3.1930e-02  2.2857e+00  6.6950e-03  4.1032e-03  1.6903e-03  0:01:32 1566
   435  6.2892e-03  2.7633e-02  3.1795e-02  2.2318e+00  6.2617e-03  4.0921e-03  1.6836e-03  0:01:14 1565
   436  5.9185e-03  2.7519e-02  3.1629e-02  2.1933e+00  5.8910e-03  4.0854e-03  1.6773e-03  0:00:59 1564
   437  5.6045e-03  2.7400e-02  3.1472e-02  2.1724e+00  5.5768e-03  4.0778e-03  1.6727e-03  0:06:00 1563
   438  5.3257e-03  2.7270e-02  3.1317e-02  2.1571e+00  5.2977e-03  4.0692e-03  1.6643e-03  0:04:48 1562
   439  5.0831e-03  2.7129e-02  3.1166e-02  2.1568e+00  5.0546e-03  4.0584e-03  1.6563e-03  0:03:50 1561
   440  4.8686e-03  2.6979e-02  3.1020e-02  2.1557e+00  4.8396e-03  4.0513e-03  1.6534e-03  0:03:04 1560

  iter  continuity  x-velocity  y-velocity  z-velocity      energy           k       omega     time/iter
   441  4.6898e-03  2.6815e-02  3.0874e-02  2.1539e+00  4.6602e-03  4.0473e-03  1.6477e-03  0:02:27 1559
   442  4.5592e-03  2.6649e-02  3.0743e-02  2.1513e+00  4.5291e-03  4.0450e-03  1.6429e-03  0:01:58 1558
   443  4.4480e-03  2.6470e-02  3.0614e-02  2.1374e+00  4.4171e-03  4.0474e-03  1.6385e-03  0:01:34 1557
   444  4.3614e-03  2.6287e-02  3.0503e-02  2.1226e+00  4.3299e-03  4.0488e-03  1.6374e-03  0:01:15 1556
   445  4.3036e-03  2.6104e-02  3.0411e-02  2.1077e+00  4.2716e-03  4.0482e-03  1.6416e-03  0:06:11 1555
   446  4.2714e-03  2.5920e-02  3.0329e-02  2.0876e+00  4.2388e-03  4.0489e-03  1.6390e-03  0:04:57 1554
   447  4.2686e-03  2.5735e-02  3.0274e-02  2.0586e+00  4.2356e-03  4.0483e-03  1.6359e-03  0:03:57 1553
   448  4.2875e-03  2.5550e-02  3.0227e-02  2.0436e+00  4.2542e-03  4.0502e-03  1.6324e-03  0:03:10 1552
   449  4.3209e-03  2.5364e-02  3.0181e-02  2.0359e+00  4.2874e-03  4.0562e-03  1.6287e-03  0:02:32 1551
   450  4.3708e-03  2.5177e-02  3.0133e-02  2.0217e+00  4.3372e-03  4.0624e-03  1.6290e-03  0:02:01 1550
   451  4.4312e-03  2.4987e-02  3.0084e-02  1.9962e+00  4.3976e-03  4.0700e-03  1.6296e-03  0:01:37 1549

  iter  continuity  x-velocity  y-velocity  z-velocity      energy           k       omega     time/iter
   452  4.5009e-03  2.4803e-02  3.0032e-02  1.9714e+00  4.4673e-03  4.0737e-03  1.6289e-03  0:01:17 1548
   453  4.5782e-03  2.4625e-02  2.9974e-02  1.9475e+00  4.5446e-03  4.0761e-03  1.6338e-03  0:01:02 1547
   454  4.6654e-03  2.4452e-02  2.9914e-02  1.9260e+00  4.6319e-03  4.0714e-03  1.6343e-03  0:00:50 1546
   455  4.7614e-03  2.4281e-02  2.9842e-02  1.9095e+00  4.7281e-03  4.0661e-03  1.6347e-03  0:05:49 1545
   456  4.8747e-03  2.4107e-02  2.9754e-02  1.9069e+00  4.8418e-03  4.0649e-03  1.6338e-03  0:04:39 1544
   457  4.9860e-03  2.3947e-02  2.9658e-02  1.9201e+00  4.9534e-03  4.0677e-03  1.6479e-03  0:03:43 1543
   458  5.0979e-03  2.3797e-02  2.9565e-02  1.9555e+00  5.0657e-03  4.0707e-03  1.6444e-03  0:02:58 1542
   459  5.2116e-03  2.3653e-02  2.9499e-02  2.0135e+00  5.1798e-03  4.0698e-03  1.6431e-03  0:02:22 1541
   460  5.3228e-03  2.3512e-02  2.9458e-02  2.0723e+00  5.2914e-03  4.0704e-03  1.6396e-03  0:01:54 1540
   461  5.4340e-03  2.3380e-02  2.9444e-02  2.1379e+00  5.4031e-03  4.0673e-03  1.6392e-03  0:01:31 1539
   462  5.5455e-03  2.3258e-02  2.9458e-02  2.1977e+00  5.5150e-03  4.0664e-03  1.6393e-03  0:01:13 1538

  iter  continuity  x-velocity  y-velocity  z-velocity      energy           k       omega     time/iter
   463  5.6579e-03  2.3143e-02  2.9492e-02  2.2441e+00  5.6278e-03  4.0694e-03  1.6410e-03  0:00:58 1537
   464  5.7716e-03  2.3033e-02  2.9543e-02  2.2809e+00  5.7419e-03  4.0758e-03  1.6464e-03  0:05:54 1536
   465  5.8842e-03  2.2925e-02  2.9602e-02  2.3037e+00  5.8550e-03  4.0816e-03  1.6517e-03  0:04:43 1535
   466  5.9924e-03  2.2821e-02  2.9664e-02  2.3109e+00  5.9635e-03  4.0848e-03  1.6571e-03  0:03:46 1534
   467  6.1018e-03  2.2721e-02  2.9746e-02  2.3026e+00  6.0733e-03  4.0885e-03  1.6620e-03  0:03:01 1533
   468  6.2090e-03  2.2623e-02  2.9834e-02  2.2847e+00  6.1810e-03  4.0870e-03  1.6667e-03  0:02:25 1532
   469  6.3084e-03  2.2532e-02  2.9915e-02  2.2607e+00  6.2807e-03  4.0827e-03  1.6735e-03  0:01:56 1531
   470  6.4049e-03  2.2447e-02  2.9997e-02  2.2356e+00  6.3776e-03  4.0776e-03  1.6796e-03  0:01:32 1530
   471  6.4958e-03  2.2366e-02  3.0073e-02  2.2112e+00  6.4689e-03  4.0707e-03  1.6861e-03  0:01:14 1529
   472  6.5799e-03  2.2285e-02  3.0139e-02  2.1793e+00  6.5534e-03  4.0679e-03  1.6931e-03  0:00:59 1528
   473  6.6611e-03  2.2204e-02  3.0199e-02  2.1539e+00  6.6350e-03  4.0676e-03  1.6984e-03  0:00:47 1527

  iter  continuity  x-velocity  y-velocity  z-velocity      energy           k       omega     time/iter
   474  6.7332e-03  2.2123e-02  3.0242e-02  2.1372e+00  6.7075e-03  4.0701e-03  1.7062e-03  0:05:43 1526
   475  6.8019e-03  2.2043e-02  3.0279e-02  2.1193e+00  6.7767e-03  4.0753e-03  1.7115e-03  0:04:34 1525
   476  6.8610e-03  2.1967e-02  3.0310e-02  2.1034e+00  6.8362e-03  4.0784e-03  1.7141e-03  0:03:39 1524
   477  6.9134e-03  2.1895e-02  3.0345e-02  2.0841e+00  6.8890e-03  4.0776e-03  1.7178e-03  0:02:55 1523
   478  6.9629e-03  2.1832e-02  3.0380e-02  2.0552e+00  6.9390e-03  4.0722e-03  1.7196e-03  0:02:20 1522
   479  7.0062e-03  2.1765e-02  3.0405e-02  2.0257e+00  6.9828e-03  4.0676e-03  1.7213e-03  0:01:52 1521
   480  7.0502e-03  2.1699e-02  3.0404e-02  1.9930e+00  7.0272e-03  4.0646e-03  1.7200e-03  0:01:30 1520
   481  7.0912e-03  2.1631e-02  3.0400e-02  1.9557e+00  7.0686e-03  4.0629e-03  1.7176e-03  0:01:12 1519
   482  7.1332e-03  2.1553e-02  3.0399e-02  1.9192e+00  7.1111e-03  4.0677e-03  1.7164e-03  0:00:57 1518
   483  7.1751e-03  2.1486e-02  3.0402e-02  1.8896e+00  7.1535e-03  4.0664e-03  1.7160e-03  0:00:46 1517
   484  7.2146e-03  2.1421e-02  3.0404e-02  1.8697e+00  7.1934e-03  4.0620e-03  1.7153e-03  0:05:40 1516

  iter  continuity  x-velocity  y-velocity  z-velocity      energy           k       omega     time/iter
   485  7.2522e-03  2.1352e-02  3.0400e-02  1.8504e+00  7.2315e-03  4.0585e-03  1.7186e-03  0:04:32 1515
   486  7.2904e-03  2.1281e-02  3.0392e-02  1.8258e+00  7.2702e-03  4.0608e-03  1.7219e-03  0:03:37 1514
   487  7.3330e-03  2.1207e-02  3.0380e-02  1.8035e+00  7.3133e-03  4.0666e-03  1.7259e-03  0:02:54 1513
   488  7.3811e-03  2.1133e-02  3.0371e-02  1.7794e+00  7.3618e-03  4.0685e-03  1.7303e-03  0:02:19 1512
   489  7.4320e-03  2.1040e-02  3.0356e-02  1.7495e+00  7.4132e-03  4.0699e-03  1.7325e-03  0:01:51 1511
   490  7.4857e-03  2.0939e-02  3.0337e-02  1.7145e+00  7.4673e-03  4.0719e-03  1.7399e-03  0:01:29 1510
   491  7.5436e-03  2.0835e-02  3.0312e-02  1.6748e+00  7.5257e-03  4.0734e-03  1.7499e-03  0:01:11 1509
   492  7.6038e-03  2.0725e-02  3.0280e-02  1.6344e+00  7.5863e-03  4.0707e-03  1.7561e-03  0:00:57 1508
   493  7.6688e-03  2.0613e-02  3.0245e-02  1.5929e+00  7.6517e-03  4.0714e-03  1.7611e-03  0:00:45 1507
   494  7.7358e-03  2.0495e-02  3.0211e-02  1.5609e+00  7.7191e-03  4.0750e-03  1.7673e-03  0:05:37 1506
   495  7.8015e-03  2.0364e-02  3.0175e-02  1.5350e+00  7.7852e-03  4.0766e-03  1.7703e-03  0:04:30 1505

  iter  continuity  x-velocity  y-velocity  z-velocity      energy           k       omega     time/iter
   496  7.8675e-03  2.0233e-02  3.0140e-02  1.5113e+00  7.8516e-03  4.0738e-03  1.7726e-03  0:03:36 1504
   497  7.9333e-03  2.0107e-02  3.0106e-02  1.4907e+00  7.9177e-03  4.0737e-03  1.7772e-03  0:02:52 1503
   498  7.9979e-03  1.9986e-02  3.0067e-02  1.4730e+00  7.9827e-03  4.0782e-03  1.7818e-03  0:02:18 1502
   499  8.0614e-03  1.9864e-02  3.0021e-02  1.4548e+00  8.0465e-03  4.0820e-03  1.7878e-03  0:01:50 1501
   500  8.1238e-03  1.9728e-02  2.9959e-02  1.4441e+00  8.1093e-03  4.0881e-03  1.7909e-03  0:01:28 1500
   501  8.1849e-03  1.9582e-02  2.9887e-02  1.4304e+00  8.1706e-03  4.0932e-03  1.7946e-03  0:01:10 1499
   502  8.2464e-03  1.9422e-02  2.9811e-02  1.4109e+00  8.2322e-03  4.0987e-03  1.7990e-03  0:00:56 1498
   503  8.3091e-03  1.9260e-02  2.9727e-02  1.3911e+00  8.2950e-03  4.1062e-03  1.8038e-03  0:00:45 1497
   504  8.3724e-03  1.9097e-02  2.9633e-02  1.3677e+00  8.3583e-03  4.1158e-03  1.8120e-03  0:05:35 1496
   505  8.4363e-03  1.8953e-02  2.9523e-02  1.3471e+00  8.4223e-03  4.1275e-03  1.8193e-03  0:04:28 1495
   506  8.5006e-03  1.8820e-02  2.9404e-02  1.3300e+00  8.4867e-03  4.1400e-03  1.8244e-03  0:03:34 1494

  iter  continuity  x-velocity  y-velocity  z-velocity      energy           k       omega     time/iter
   507  8.5658e-03  1.8711e-02  2.9275e-02  1.3227e+00  8.5521e-03  4.1500e-03  1.8271e-03  0:02:51 1493
   508  8.6327e-03  1.8629e-02  2.9142e-02  1.3209e+00  8.6192e-03  4.1625e-03  1.8309e-03  0:02:17 1492
   509  8.7014e-03  1.8575e-02  2.9009e-02  1.3179e+00  8.6882e-03  4.1732e-03  1.8338e-03  0:01:49 1491
   510  8.7734e-03  1.8547e-02  2.8877e-02  1.3094e+00  8.7606e-03  4.1864e-03  1.8331e-03  0:01:28 1490
   511  8.8504e-03  1.8538e-02  2.8750e-02  1.3041e+00  8.8379e-03  4.1947e-03  1.8336e-03  0:01:10 1489
   512  8.9328e-03  1.8538e-02  2.8627e-02  1.2773e+00  8.9205e-03  4.2062e-03  1.8353e-03  0:00:56 1488
   513  9.0211e-03  1.8546e-02  2.8507e-02  1.2510e+00  9.0090e-03  4.2236e-03  1.8403e-03  0:05:42 1487
   514  9.1147e-03  1.8565e-02  2.8392e-02  1.2512e+00  9.1028e-03  4.2454e-03  1.8442e-03  0:04:34 1486
   515  9.2130e-03  1.8606e-02  2.8282e-02  1.2471e+00  9.2012e-03  4.2712e-03  1.8466e-03  0:03:39 1485
   516  9.3161e-03  1.8667e-02  2.8173e-02  1.2421e+00  9.3045e-03  4.2950e-03  1.8500e-03  0:02:55 1484
   517  9.4250e-03  1.8751e-02  2.8076e-02  1.2309e+00  9.4135e-03  4.3216e-03  1.8583e-03  0:02:20 1483

  iter  continuity  x-velocity  y-velocity  z-velocity      energy           k       omega     time/iter
   518  9.5376e-03  1.8856e-02  2.7979e-02  1.2113e+00  9.5261e-03  4.3447e-03  1.8708e-03  0:01:52 1482
   519  9.6537e-03  1.8981e-02  2.7888e-02  1.1889e+00  9.6424e-03  4.3652e-03  1.8826e-03  0:01:29 1481
   520  9.7731e-03  1.9138e-02  2.7804e-02  1.1634e+00  9.7618e-03  4.3930e-03  1.8933e-03  0:01:11 1480
   521  9.8953e-03  1.9316e-02  2.7725e-02  1.1350e+00  9.8840e-03  4.4248e-03  1.9039e-03  0:00:57 1479
   522  1.0019e-02  1.9511e-02  2.7645e-02  1.1053e+00  1.0008e-02  4.4584e-03  1.9144e-03  0:00:46 1478
   523  1.0144e-02  1.9721e-02  2.7556e-02  1.0764e+00  1.0133e-02  4.4899e-03  1.9226e-03  0:05:32 1477
   524  1.0272e-02  1.9940e-02  2.7471e-02  1.0507e+00  1.0261e-02  4.5200e-03  1.9300e-03  0:04:25 1476
   525  1.0401e-02  2.0174e-02  2.7404e-02  1.0256e+00  1.0390e-02  4.5462e-03  1.9351e-03  0:03:32 1475
   526  1.0532e-02  2.0420e-02  2.7343e-02  1.0001e+00  1.0522e-02  4.5731e-03  1.9397e-03  0:02:50 1474
   527  1.0666e-02  2.0688e-02  2.7287e-02  9.7051e-01  1.0656e-02  4.6015e-03  1.9411e-03  0:02:16 1473
   528  1.0804e-02  2.0969e-02  2.7260e-02  9.3984e-01  1.0794e-02  4.6269e-03  1.9453e-03  0:01:48 1472

  iter  continuity  x-velocity  y-velocity  z-velocity      energy           k       omega     time/iter
   529  1.0944e-02  2.1254e-02  2.7236e-02  9.1025e-01  1.0934e-02  4.6541e-03  1.9481e-03  0:01:27 1471
   530  1.1089e-02  2.1552e-02  2.7189e-02  8.8123e-01  1.1079e-02  4.6799e-03  1.9569e-03  0:01:09 1470
   531  1.1237e-02  2.1868e-02  2.7090e-02  8.5209e-01  1.1227e-02  4.7080e-03  1.9670e-03  0:00:55 1469
   532  1.1391e-02  2.2194e-02  2.6973e-02  8.2291e-01  1.1382e-02  4.7399e-03  1.9792e-03  0:00:44 1468
   533  1.1552e-02  2.2519e-02  2.6869e-02  7.9542e-01  1.1542e-02  4.7743e-03  1.9901e-03  0:05:29 1467
   534  1.1719e-02  2.2849e-02  2.6772e-02  7.7070e-01  1.1709e-02  4.8046e-03  2.0002e-03  0:04:23 1466
   535  1.1891e-02  2.3188e-02  2.6681e-02  7.4625e-01  1.1881e-02  4.8356e-03  2.0108e-03  0:03:30 1465
   536  1.2068e-02  2.3524e-02  2.6590e-02  7.2481e-01  1.2058e-02  4.8710e-03  2.0225e-03  0:02:48 1464
   537  1.2249e-02  2.3844e-02  2.6459e-02  7.0422e-01  1.2240e-02  4.9032e-03  2.0394e-03  0:02:14 1463
   538  1.2434e-02  2.4168e-02  2.6290e-02  6.8156e-01  1.2425e-02  4.9378e-03  2.0590e-03  0:01:47 1462
   539  1.2619e-02  2.4465e-02  2.6128e-02  6.5821e-01  1.2609e-02  4.9753e-03  2.0695e-03  0:01:26 1461

  iter  continuity  x-velocity  y-velocity  z-velocity      energy           k       omega     time/iter
   540  1.2803e-02  2.4740e-02  2.6001e-02  6.3362e-01  1.2794e-02  5.0078e-03  2.0766e-03  0:01:09 1460
   541  1.2988e-02  2.4952e-02  2.5905e-02  6.1160e-01  1.2978e-02  5.0366e-03  2.0777e-03  0:00:55 1459
   542  1.3173e-02  2.5137e-02  2.5835e-02  5.9359e-01  1.3163e-02  5.0719e-03  2.0897e-03  0:00:44 1458
   543  1.3358e-02  2.5336e-02  2.5783e-02  5.7356e-01  1.3348e-02  5.1084e-03  2.1018e-03  0:05:26 1457
   544  1.3539e-02  2.5538e-02  2.5724e-02  5.5837e-01  1.3529e-02  5.1421e-03  2.1140e-03  0:04:21 1456
   545  1.3716e-02  2.5747e-02  2.5655e-02  5.4303e-01  1.3707e-02  5.1785e-03  2.1282e-03  0:03:29 1455
   546  1.3889e-02  2.5959e-02  2.5590e-02  5.3407e-01  1.3880e-02  5.2143e-03  2.1433e-03  0:02:47 1454
   547  1.4061e-02  2.6195e-02  2.5555e-02  5.3091e-01  1.4052e-02  5.2473e-03  2.1569e-03  0:02:13 1453
   548  1.4225e-02  2.6416e-02  2.5548e-02  5.3056e-01  1.4217e-02  5.2789e-03  2.1699e-03  0:01:47 1452
   549  1.4379e-02  2.6614e-02  2.5540e-02  5.4093e-01  1.4370e-02  5.3027e-03  2.1801e-03  0:01:25 1451
   550  1.4523e-02  2.6791e-02  2.5509e-02  5.5038e-01  1.4514e-02  5.3250e-03  2.1841e-03  0:01:08 1450

  iter  continuity  x-velocity  y-velocity  z-velocity      energy           k       omega     time/iter
   551  1.4656e-02  2.6946e-02  2.5447e-02  5.5632e-01  1.4648e-02  5.3630e-03  2.1846e-03  0:00:54 1449
   552  1.4777e-02  2.7085e-02  2.5363e-02  5.6379e-01  1.4769e-02  5.4006e-03  2.1863e-03  0:00:44 1448
   553  1.4887e-02  2.7211e-02  2.5182e-02  5.7135e-01  1.4880e-02  5.4301e-03  2.1949e-03  0:05:24 1447
   554  1.4984e-02  2.7321e-02  2.4918e-02  5.6453e-01  1.4977e-02  5.4544e-03  2.1999e-03  0:04:19 1446
   555  1.5068e-02  2.7424e-02  2.4574e-02  5.5631e-01  1.5061e-02  5.4774e-03  2.2079e-03  0:03:27 1445
   556  1.5133e-02  2.7500e-02  2.4211e-02  5.5759e-01  1.5126e-02  5.5109e-03  2.2163e-03  0:02:46 1444
   557  1.5180e-02  2.7569e-02  2.3874e-02  5.7409e-01  1.5173e-02  5.5381e-03  2.2251e-03  0:02:12 1443
   558  1.5206e-02  2.7625e-02  2.3563e-02  5.9088e-01  1.5199e-02  5.5578e-03  2.2376e-03  0:01:46 1442
   559  1.5212e-02  2.7661e-02  2.3294e-02  5.9818e-01  1.5205e-02  5.5685e-03  2.2473e-03  0:01:25 1441
   560  1.5195e-02  2.7697e-02  2.3076e-02  6.0192e-01  1.5188e-02  5.5889e-03  2.2520e-03  0:01:08 1440
   561  1.5153e-02  2.7728e-02  2.2905e-02  5.9598e-01  1.5146e-02  5.6148e-03  2.2516e-03  0:00:54 1439

  iter  continuity  x-velocity  y-velocity  z-velocity      energy           k       omega     time/iter
   562  1.5086e-02  2.7740e-02  2.2787e-02  5.8523e-01  1.5080e-02  5.6406e-03  2.2527e-03  0:00:43 1438
   563  1.4991e-02  2.7730e-02  2.2728e-02  5.7460e-01  1.4984e-02  5.6505e-03  2.2514e-03  0:05:22 1437
   564  1.4864e-02  2.7675e-02  2.2726e-02  5.6732e-01  1.4858e-02  5.6629e-03  2.2494e-03  0:04:17 1436
   565  1.4707e-02  2.7576e-02  2.2764e-02  5.5822e-01  1.4701e-02  5.6678e-03  2.2406e-03  0:03:26 1435
   566  1.4520e-02  2.7425e-02  2.2841e-02  5.5572e-01  1.4514e-02  5.6764e-03  2.2312e-03  0:02:45 1434
   567  1.4300e-02  2.7225e-02  2.2930e-02  5.6275e-01  1.4294e-02  5.6826e-03  2.2198e-03  0:02:12 1433
   568  1.4045e-02  2.7009e-02  2.3025e-02  5.7292e-01  1.4039e-02  5.6892e-03  2.2031e-03  0:01:45 1432
   569  1.3760e-02  2.6810e-02  2.3136e-02  5.7020e-01  1.3753e-02  5.6841e-03  2.1810e-03  0:01:24 1431
   570  1.3442e-02  2.6623e-02  2.3287e-02  5.6289e-01  1.3435e-02  5.6821e-03  2.1668e-03  0:01:07 1430
   571  1.3089e-02  2.6452e-02  2.3490e-02  5.5464e-01  1.3083e-02  5.6707e-03  2.1474e-03  0:00:54 1429
   572  1.2706e-02  2.6302e-02  2.3704e-02  5.4606e-01  1.2700e-02  5.6608e-03  2.1259e-03  0:00:43 1428

  iter  continuity  x-velocity  y-velocity  z-velocity      energy           k       omega     time/iter
   573  1.2283e-02  2.6181e-02  2.3910e-02  5.4030e-01  1.2277e-02  5.6478e-03  2.1051e-03  0:05:20 1427
   574  1.1830e-02  2.6073e-02  2.4117e-02  5.4216e-01  1.1825e-02  5.6264e-03  2.0850e-03  0:04:16 1426
   575  1.1348e-02  2.5974e-02  2.4308e-02  5.5310e-01  1.1343e-02  5.6028e-03  2.0706e-03  0:03:24 1425
   576  1.0839e-02  2.5881e-02  2.4467e-02  5.6427e-01  1.0834e-02  5.5731e-03  2.0399e-03  0:02:43 1424
   577  1.0304e-02  2.5777e-02  2.4541e-02  5.7458e-01  1.0298e-02  5.5374e-03  2.0088e-03  0:02:11 1423
   578  9.7385e-03  2.5662e-02  2.4555e-02  5.7315e-01  9.7331e-03  5.5046e-03  1.9767e-03  0:01:44 1422
   579  9.1403e-03  2.5544e-02  2.4554e-02  5.6627e-01  9.1347e-03  5.4721e-03  1.9483e-03  0:01:23 1421
   580  8.5140e-03  2.5429e-02  2.4521e-02  5.5879e-01  8.5083e-03  5.4354e-03  1.9292e-03  0:01:07 1420
   581  7.8622e-03  2.5315e-02  2.4453e-02  5.5448e-01  7.8562e-03  5.4018e-03  1.9164e-03  0:00:53 1419
   582  7.2008e-03  2.5203e-02  2.4351e-02  5.4894e-01  7.1944e-03  5.3613e-03  1.9009e-03  0:05:26 1418
   583  6.5435e-03  2.5094e-02  2.4214e-02  5.4113e-01  6.5368e-03  5.3187e-03  1.8908e-03  0:04:21 1417

  iter  continuity  x-velocity  y-velocity  z-velocity      energy           k       omega     time/iter
   584  5.9155e-03  2.5001e-02  2.4042e-02  5.3361e-01  5.9083e-03  5.2794e-03  1.8758e-03  0:03:29 1416
   585  5.3266e-03  2.4905e-02  2.3837e-02  5.3006e-01  5.3190e-03  5.2426e-03  1.8629e-03  0:02:47 1415
   586  4.8152e-03  2.4811e-02  2.3620e-02  5.2815e-01  4.8072e-03  5.2075e-03  1.8482e-03  0:02:13 1414
   587  4.4104e-03  2.4732e-02  2.3364e-02  5.2990e-01  4.4022e-03  5.1762e-03  1.8361e-03  0:01:47 1413
   588  4.1456e-03  2.4650e-02  2.3058e-02  5.3246e-01  4.1378e-03  5.1476e-03  1.8293e-03  0:01:25 1412
   589  4.0543e-03  2.4586e-02  2.2726e-02  5.3416e-01  4.0473e-03  5.1225e-03  1.8149e-03  0:01:08 1411
   590  4.1731e-03  2.4508e-02  2.2379e-02  5.3461e-01  4.1672e-03  5.0948e-03  1.8018e-03  0:00:54 1410
   591  4.4869e-03  2.4425e-02  2.2012e-02  5.3634e-01  4.4824e-03  5.0666e-03  1.7910e-03  0:00:44 1409
   592  4.9391e-03  2.4331e-02  2.1620e-02  5.4301e-01  4.9359e-03  5.0460e-03  1.7771e-03  0:05:16 1408
   593  5.4976e-03  2.4227e-02  2.1187e-02  5.5467e-01  5.4956e-03  5.0292e-03  1.7611e-03  0:04:13 1407
   594  6.1201e-03  2.4129e-02  2.0713e-02  5.6038e-01  6.1189e-03  5.0162e-03  1.7472e-03  0:03:22 1406

  iter  continuity  x-velocity  y-velocity  z-velocity      energy           k       omega     time/iter
   595  6.7770e-03  2.4050e-02  2.0223e-02  5.6382e-01  6.7764e-03  5.0021e-03  1.7369e-03  0:02:42 1405
   596  7.4544e-03  2.3970e-02  1.9735e-02  5.6838e-01  7.4543e-03  4.9827e-03  1.7270e-03  0:02:09 1404
   597  8.1420e-03  2.3884e-02  1.9262e-02  5.6493e-01  8.1421e-03  4.9610e-03  1.7187e-03  0:01:43 1403
   598  8.8244e-03  2.3792e-02  1.8799e-02  5.5232e-01  8.8246e-03  4.9423e-03  1.7113e-03  0:01:23 1402
   599  9.4972e-03  2.3701e-02  1.8349e-02  5.4061e-01  9.4976e-03  4.9261e-03  1.7046e-03  0:01:06 1401
   600  1.0152e-02  2.3610e-02  1.7917e-02  5.3230e-01  1.0153e-02  4.9131e-03  1.6956e-03  0:00:53 1400
   601  1.0791e-02  2.3512e-02  1.7504e-02  5.2398e-01  1.0792e-02  4.9023e-03  1.6844e-03  0:05:22 1399
   602  1.1408e-02  2.3405e-02  1.7121e-02  5.2011e-01  1.1408e-02  4.8906e-03  1.6732e-03  0:04:17 1398
   603  1.1982e-02  2.3287e-02  1.6770e-02  5.2133e-01  1.1982e-02  4.8763e-03  1.6626e-03  0:03:26 1397
   604  1.2496e-02  2.3159e-02  1.6448e-02  5.2491e-01  1.2496e-02  4.8613e-03  1.6515e-03  0:02:45 1396
   605  1.2942e-02  2.3012e-02  1.6140e-02  5.2643e-01  1.2942e-02  4.8446e-03  1.6384e-03  0:02:12 1395

  iter  continuity  x-velocity  y-velocity  z-velocity      energy           k       omega     time/iter
   606  1.3318e-02  2.2853e-02  1.5845e-02  5.2686e-01  1.3318e-02  4.8264e-03  1.6303e-03  0:01:45 1394
   607  1.3614e-02  2.2689e-02  1.5562e-02  5.2572e-01  1.3613e-02  4.8086e-03  1.6209e-03  0:01:24 1393
   608  1.3856e-02  2.2519e-02  1.5293e-02  5.2469e-01  1.3855e-02  4.7905e-03  1.6135e-03  0:01:07 1392
   609  1.4046e-02  2.2343e-02  1.5036e-02  5.2360e-01  1.4044e-02  4.7754e-03  1.6056e-03  0:00:54 1391
   610  1.4187e-02  2.2163e-02  1.4789e-02  5.2312e-01  1.4185e-02  4.7644e-03  1.5914e-03  0:05:21 1390
   611  1.4255e-02  2.1986e-02  1.4544e-02  5.2240e-01  1.4253e-02  4.7564e-03  1.5803e-03  0:04:17 1389
   612  1.4266e-02  2.1810e-02  1.4306e-02  5.2071e-01  1.4264e-02  4.7476e-03  1.5672e-03  0:03:25 1388
   613  1.4225e-02  2.1637e-02  1.4077e-02  5.1778e-01  1.4222e-02  4.7359e-03  1.5533e-03  0:02:44 1387
   614  1.4130e-02  2.1463e-02  1.3850e-02  5.1387e-01  1.4127e-02  4.7219e-03  1.5397e-03  0:02:11 1386
   615  1.3990e-02  2.1294e-02  1.3632e-02  5.0951e-01  1.3986e-02  4.7072e-03  1.5247e-03  0:01:45 1385
   616  1.3812e-02  2.1132e-02  1.3418e-02  5.0363e-01  1.3808e-02  4.6918e-03  1.5067e-03  0:01:24 1384

  iter  continuity  x-velocity  y-velocity  z-velocity      energy           k       omega     time/iter
   617  1.3588e-02  2.0977e-02  1.3213e-02  4.9710e-01  1.3584e-02  4.6761e-03  1.4920e-03  0:01:07 1383
   618  1.3311e-02  2.0828e-02  1.3016e-02  4.8979e-01  1.3306e-02  4.6593e-03  1.4806e-03  0:00:54 1382
   619  1.2980e-02  2.0682e-02  1.2825e-02  4.8217e-01  1.2975e-02  4.6426e-03  1.4688e-03  0:00:43 1381
   620  1.2606e-02  2.0544e-02  1.2641e-02  4.7536e-01  1.2600e-02  4.6277e-03  1.4570e-03  0:05:10 1380
   621  1.2190e-02  2.0413e-02  1.2464e-02  4.6926e-01  1.2184e-02  4.6113e-03  1.4444e-03  0:04:08 1379
   622  1.1726e-02  2.0286e-02  1.2298e-02  4.6361e-01  1.1719e-02  4.5954e-03  1.4334e-03  0:03:18 1378
   623  1.1231e-02  2.0165e-02  1.2139e-02  4.5876e-01  1.1224e-02  4.5811e-03  1.4242e-03  0:02:38 1377
   624  1.0714e-02  2.0048e-02  1.1989e-02  4.5174e-01  1.0706e-02  4.5669e-03  1.4169e-03  0:02:07 1376
   625  1.0180e-02  1.9933e-02  1.1852e-02  4.4673e-01  1.0172e-02  4.5553e-03  1.4129e-03  0:01:41 1375
   626  9.6181e-03  1.9819e-02  1.1719e-02  4.4285e-01  9.6095e-03  4.5422e-03  1.4109e-03  0:01:21 1374
[...]
  1838  9.0754e-03  1.2906e-02  2.4142e-02  1.6195e+01  9.0551e-03  6.5959e-03  2.5259e-03  0:00:08  162
  1839  8.9365e-03  1.2949e-02  2.4177e-02  1.6247e+01  8.9157e-03  6.6166e-03  2.5198e-03  0:00:06  161
  1840  8.7918e-03  1.3024e-02  2.4211e-02  1.6129e+01  8.7702e-03  6.6381e-03  2.5248e-03  0:00:05  160
  1841  8.6544e-03  1.3131e-02  2.4238e-02  1.6022e+01  8.6321e-03  6.6454e-03  2.5249e-03  0:00:36  159
  1842  8.5251e-03  1.3276e-02  2.4258e-02  1.6028e+01  8.5020e-03  6.6435e-03  2.5201e-03  0:00:28  158
  1843  8.3928e-03  1.3440e-02  2.4290e-02  1.6193e+01  8.3690e-03  6.6362e-03  2.5258e-03  0:00:23  157
  1844  8.2814e-03  1.3628e-02  2.4321e-02  1.6400e+01  8.2569e-03  6.6341e-03  2.5301e-03  0:00:18  156
  1845  8.1844e-03  1.3840e-02  2.4354e-02  1.6525e+01  8.1593e-03  6.6400e-03  2.5259e-03  0:00:14  155
  1846  8.0892e-03  1.4065e-02  2.4375e-02  1.6708e+01  8.0636e-03  6.6567e-03  2.5169e-03  0:00:11  154
  1847  8.0102e-03  1.4312e-02  2.4350e-02  1.6960e+01  7.9841e-03  6.6809e-03  2.5211e-03  0:00:09  153
  1848  7.9515e-03  1.4560e-02  2.4304e-02  1.7127e+01  7.9251e-03  6.7166e-03  2.5202e-03  0:00:07  152

  iter  continuity  x-velocity  y-velocity  z-velocity      energy           k       omega     time/iter
  1849  7.9106e-03  1.4807e-02  2.4233e-02  1.7256e+01  7.8839e-03  6.7457e-03  2.5242e-03  0:00:06  151
  1850  7.8804e-03  1.5061e-02  2.4145e-02  1.7349e+01  7.8535e-03  6.7787e-03  2.5267e-03  0:00:35  150
  1851  7.8558e-03  1.5279e-02  2.4024e-02  1.7329e+01  7.8287e-03  6.8118e-03  2.5216e-03  0:00:27  149
  1852  7.8270e-03  1.5470e-02  2.3876e-02  1.7576e+01  7.7996e-03  6.8555e-03  2.5204e-03  0:00:22  148
  1853  7.7937e-03  1.5630e-02  2.3775e-02  1.7842e+01  7.7663e-03  6.8967e-03  2.5130e-03  0:00:17  147
  1854  7.7564e-03  1.5748e-02  2.3708e-02  1.8041e+01  7.7289e-03  6.9292e-03  2.5132e-03  0:00:14  146
  1855  7.7243e-03  1.5841e-02  2.3676e-02  1.8216e+01  7.6966e-03  6.9567e-03  2.5041e-03  0:00:11  145
  1856  7.6971e-03  1.5964e-02  2.3667e-02  1.8132e+01  7.6691e-03  6.9860e-03  2.5023e-03  0:00:09  144
  1857  7.6763e-03  1.6163e-02  2.3651e-02  1.8076e+01  7.6480e-03  7.0156e-03  2.5132e-03  0:00:07  143
  1858  7.6605e-03  1.6388e-02  2.3586e-02  1.7998e+01  7.6319e-03  7.0422e-03  2.5298e-03  0:00:05  142
  1859  7.6494e-03  1.6606e-02  2.3461e-02  1.7863e+01  7.6205e-03  7.0657e-03  2.5301e-03  0:00:04  141

  iter  continuity  x-velocity  y-velocity  z-velocity      energy           k       omega     time/iter
  1860  7.6331e-03  1.6811e-02  2.3291e-02  1.7602e+01  7.6038e-03  7.0948e-03  2.5212e-03  0:00:31  140
  1861  7.6226e-03  1.6991e-02  2.3063e-02  1.7476e+01  7.5928e-03  7.1316e-03  2.5277e-03  0:00:25  139
  1862  7.5845e-03  1.7180e-02  2.2801e-02  1.7471e+01  7.5541e-03  7.1656e-03  2.5252e-03  0:00:20  138
  1863  7.5579e-03  1.7386e-02  2.2538e-02  1.7278e+01  7.5270e-03  7.2069e-03  2.5181e-03  0:00:16  137
  1864  7.5409e-03  1.7603e-02  2.2286e-02  1.7119e+01  7.5093e-03  7.2648e-03  2.5212e-03  0:00:13  136
  1865  7.5366e-03  1.7838e-02  2.2037e-02  1.6893e+01  7.5045e-03  7.3415e-03  2.5366e-03  0:00:10  135
  1866  7.5375e-03  1.8090e-02  2.1785e-02  1.6785e+01  7.5050e-03  7.4071e-03  2.5442e-03  0:00:08  134
  1867  7.5394e-03  1.8354e-02  2.1546e-02  1.7203e+01  7.5067e-03  7.4688e-03  2.5479e-03  0:00:06  133
  1868  7.5343e-03  1.8608e-02  2.1339e-02  1.7671e+01  7.5013e-03  7.5137e-03  2.5483e-03  0:00:05  132
  1869  7.5237e-03  1.8858e-02  2.1158e-02  1.7953e+01  7.4905e-03  7.5298e-03  2.5594e-03  0:00:30  131
  1870  7.5075e-03  1.9093e-02  2.1051e-02  1.8249e+01  7.4740e-03  7.5358e-03  2.5704e-03  0:00:24  130

  iter  continuity  x-velocity  y-velocity  z-velocity      energy           k       omega     time/iter
  1871  7.4755e-03  1.9304e-02  2.0999e-02  1.8714e+01  7.4420e-03  7.5612e-03  2.5749e-03  0:00:19  129
  1872  7.4272e-03  1.9453e-02  2.0951e-02  1.9234e+01  7.3939e-03  7.5907e-03  2.5667e-03  0:00:15  128
  1873  7.3694e-03  1.9579e-02  2.0854e-02  1.9436e+01  7.3362e-03  7.6242e-03  2.5662e-03  0:00:12  127
  1874  7.3005e-03  1.9736e-02  2.0747e-02  1.9365e+01  7.2673e-03  7.6733e-03  2.5613e-03  0:00:10  126
  1875  7.2308e-03  1.9927e-02  2.0630e-02  1.9140e+01  7.1976e-03  7.7025e-03  2.5512e-03  0:00:08  125
  1876  7.1474e-03  2.0099e-02  2.0495e-02  1.8759e+01  7.1141e-03  7.7301e-03  2.5499e-03  0:00:06  124
  1877  7.0420e-03  2.0237e-02  2.0354e-02  1.8305e+01  7.0081e-03  7.7509e-03  2.5647e-03  0:00:05  123
  1878  6.9104e-03  2.0349e-02  2.0253e-02  1.7495e+01  6.8757e-03  7.7605e-03  2.5723e-03  0:00:04  122
  1879  6.7528e-03  2.0398e-02  2.0156e-02  1.6744e+01  6.7171e-03  7.7458e-03  2.5629e-03  0:00:27  121
  1880  6.5948e-03  2.0397e-02  2.0036e-02  1.6115e+01  6.5578e-03  7.7339e-03  2.5434e-03  0:00:22  120
  1881  6.4374e-03  2.0358e-02  1.9919e-02  1.5666e+01  6.3990e-03  7.7087e-03  2.5257e-03  0:00:17  119

  iter  continuity  x-velocity  y-velocity  z-velocity      energy           k       omega     time/iter
  1882  6.2708e-03  2.0299e-02  1.9819e-02  1.5422e+01  6.2310e-03  7.6905e-03  2.5118e-03  0:00:14  118
  1883  6.0904e-03  2.0230e-02  1.9734e-02  1.5219e+01  6.0493e-03  7.6594e-03  2.4968e-03  0:00:11  117
  1884  5.9019e-03  2.0165e-02  1.9706e-02  1.5254e+01  5.8600e-03  7.6309e-03  2.4756e-03  0:00:09  116
  1885  5.7026e-03  2.0117e-02  1.9729e-02  1.4929e+01  5.6600e-03  7.5998e-03  2.4659e-03  0:00:07  115
  1886  5.4860e-03  2.0074e-02  1.9791e-02  1.4785e+01  5.4430e-03  7.5571e-03  2.4601e-03  0:00:05  114
  1887  5.2468e-03  2.0010e-02  1.9894e-02  1.4855e+01  5.2038e-03  7.5125e-03  2.4509e-03  0:00:04  113
  1888  4.9938e-03  1.9897e-02  2.0046e-02  1.4970e+01  4.9509e-03  7.4419e-03  2.4409e-03  0:00:26  112
  1889  4.7407e-03  1.9779e-02  2.0248e-02  1.4956e+01  4.6978e-03  7.3529e-03  2.4446e-03  0:00:20  111
  1890  4.5049e-03  1.9665e-02  2.0484e-02  1.4763e+01  4.4623e-03  7.2764e-03  2.4370e-03  0:00:16  110
  1891  4.2986e-03  1.9516e-02  2.0732e-02  1.4540e+01  4.2563e-03  7.2396e-03  2.4280e-03  0:00:13  109
  1892  4.1341e-03  1.9315e-02  2.0994e-02  1.4272e+01  4.0924e-03  7.2124e-03  2.4173e-03  0:00:10  108

  iter  continuity  x-velocity  y-velocity  z-velocity      energy           k       omega     time/iter
  1893  4.0245e-03  1.9078e-02  2.1271e-02  1.4144e+01  3.9837e-03  7.1565e-03  2.4080e-03  0:00:08  107
  1894  4.0011e-03  1.8824e-02  2.1539e-02  1.4195e+01  3.9619e-03  7.1094e-03  2.4025e-03  0:00:06  106
  1895  4.0666e-03  1.8531e-02  2.1797e-02  1.4364e+01  4.0294e-03  7.0604e-03  2.3968e-03  0:00:05  105
  1896  4.2160e-03  1.8234e-02  2.2044e-02  1.4267e+01  4.1813e-03  7.0001e-03  2.3842e-03  0:00:04  104
  1897  4.4417e-03  1.7963e-02  2.2277e-02  1.4182e+01  4.4097e-03  6.9450e-03  2.3847e-03  0:00:03  103
  1898  4.7466e-03  1.7725e-02  2.2502e-02  1.4206e+01  4.7177e-03  6.9269e-03  2.3788e-03  0:00:23  102
  1899  5.0813e-03  1.7503e-02  2.2714e-02  1.4328e+01  5.0555e-03  6.9080e-03  2.3786e-03  0:00:18  101
  1900  5.4624e-03  1.7301e-02  2.2914e-02  1.4402e+01  5.4396e-03  6.8706e-03  2.3951e-03  0:00:14  100
  1901  5.8965e-03  1.7120e-02  2.3115e-02  1.4401e+01  5.8767e-03  6.8315e-03  2.4030e-03  0:00:11   99
  1902  6.3842e-03  1.6959e-02  2.3326e-02  1.4282e+01  6.3671e-03  6.8180e-03  2.4076e-03  0:00:09   98
  1903  6.9036e-03  1.6818e-02  2.3543e-02  1.4123e+01  6.8888e-03  6.8056e-03  2.4077e-03  0:00:07   97

  iter  continuity  x-velocity  y-velocity  z-velocity      energy           k       omega     time/iter
  1904  7.4420e-03  1.6698e-02  2.3725e-02  1.3938e+01  7.4290e-03  6.7947e-03  2.4057e-03  0:00:06   96
  1905  7.9932e-03  1.6597e-02  2.3894e-02  1.3623e+01  7.9818e-03  6.8028e-03  2.4018e-03  0:00:04   95
  1906  8.5454e-03  1.6511e-02  2.4062e-02  1.3302e+01  8.5352e-03  6.8251e-03  2.4138e-03  0:00:04   94
  1907  9.0935e-03  1.6439e-02  2.4221e-02  1.3023e+01  9.0842e-03  6.8324e-03  2.4272e-03  0:00:03   93
  1908  9.6336e-03  1.6387e-02  2.4365e-02  1.2780e+01  9.6249e-03  6.8121e-03  2.4415e-03  0:00:21   92
  1909  1.0163e-02  1.6360e-02  2.4486e-02  1.2662e+01  1.0154e-02  6.8160e-03  2.4591e-03  0:00:16   91
  1910  1.0678e-02  1.6353e-02  2.4585e-02  1.2618e+01  1.0670e-02  6.8452e-03  2.4632e-03  0:00:13   90
  1911  1.1173e-02  1.6355e-02  2.4675e-02  1.2648e+01  1.1165e-02  6.8573e-03  2.4833e-03  0:00:10   89
  1912  1.1646e-02  1.6363e-02  2.4759e-02  1.2787e+01  1.1637e-02  6.8491e-03  2.4985e-03  0:00:08   88
  1913  1.2089e-02  1.6369e-02  2.4834e-02  1.2908e+01  1.2080e-02  6.8291e-03  2.5121e-03  0:00:06   87
  1914  1.2499e-02  1.6374e-02  2.4919e-02  1.3018e+01  1.2490e-02  6.8270e-03  2.5258e-03  0:00:05   86

  iter  continuity  x-velocity  y-velocity  z-velocity      energy           k       omega     time/iter
  1915  1.2861e-02  1.6373e-02  2.5026e-02  1.3220e+01  1.2851e-02  6.8397e-03  2.5345e-03  0:00:04   85
  1916  1.3181e-02  1.6368e-02  2.5153e-02  1.3448e+01  1.3171e-02  6.8412e-03  2.5369e-03  0:00:03   84
  1917  1.3462e-02  1.6361e-02  2.5292e-02  1.3777e+01  1.3451e-02  6.8216e-03  2.5373e-03  0:00:02   83
  1918  1.3696e-02  1.6351e-02  2.5447e-02  1.4144e+01  1.3685e-02  6.8109e-03  2.5507e-03  0:00:18   82
  1919  1.3870e-02  1.6337e-02  2.5619e-02  1.4585e+01  1.3858e-02  6.8009e-03  2.5612e-03  0:00:15   81
  1920  1.3997e-02  1.6319e-02  2.5814e-02  1.5019e+01  1.3984e-02  6.8020e-03  2.5690e-03  0:00:11   80
  1921  1.4079e-02  1.6305e-02  2.6021e-02  1.5480e+01  1.4067e-02  6.7981e-03  2.5734e-03  0:00:09   79
  1922  1.4124e-02  1.6292e-02  2.6239e-02  1.5903e+01  1.4110e-02  6.7804e-03  2.5792e-03  0:00:07   78
  1923  1.4137e-02  1.6280e-02  2.6478e-02  1.6187e+01  1.4123e-02  6.7438e-03  2.5860e-03  0:00:06   77
  1924  1.4126e-02  1.6274e-02  2.6723e-02  1.6571e+01  1.4112e-02  6.7245e-03  2.5905e-03  0:00:04   76
  1925  1.4093e-02  1.6274e-02  2.6945e-02  1.7069e+01  1.4079e-02  6.6890e-03  2.5924e-03  0:00:04   75

  iter  continuity  x-velocity  y-velocity  z-velocity      energy           k       omega     time/iter
  1926  1.4037e-02  1.6265e-02  2.7153e-02  1.7696e+01  1.4022e-02  6.6570e-03  2.5972e-03  0:00:03   74
  1927  1.3966e-02  1.6260e-02  2.7359e-02  1.8366e+01  1.3950e-02  6.6427e-03  2.5938e-03  0:00:02   73
  1928  1.3871e-02  1.6263e-02  2.7565e-02  1.9056e+01  1.3855e-02  6.6158e-03  2.5932e-03  0:00:16   72
  1929  1.3747e-02  1.6253e-02  2.7771e-02  1.9851e+01  1.3730e-02  6.5835e-03  2.6009e-03  0:00:13   71
  1930  1.3596e-02  1.6248e-02  2.7967e-02  2.0687e+01  1.3579e-02  6.5563e-03  2.6026e-03  0:00:10   70
  1931  1.3421e-02  1.6255e-02  2.8153e-02  2.1539e+01  1.3403e-02  6.5213e-03  2.5948e-03  0:00:08   69
  1932  1.3229e-02  1.6257e-02  2.8328e-02  2.2438e+01  1.3211e-02  6.4685e-03  2.5953e-03  0:00:06   68
  1933  1.3019e-02  1.6272e-02  2.8490e-02  2.3331e+01  1.3001e-02  6.4061e-03  2.5954e-03  0:00:05   67
  1934  1.2797e-02  1.6299e-02  2.8643e-02  2.3857e+01  1.2779e-02  6.3622e-03  2.5839e-03  0:00:04   66
  1935  1.2568e-02  1.6335e-02  2.8795e-02  2.4519e+01  1.2549e-02  6.3199e-03  2.5820e-03  0:00:03   65
  1936  1.2330e-02  1.6395e-02  2.8934e-02  2.5422e+01  1.2311e-02  6.2717e-03  2.5773e-03  0:00:02   64

  iter  continuity  x-velocity  y-velocity  z-velocity      energy           k       omega     time/iter
  1937  1.2090e-02  1.6457e-02  2.9056e-02  2.6590e+01  1.2070e-02  6.2164e-03  2.5741e-03  0:00:14   63
  1938  1.1839e-02  1.6545e-02  2.9149e-02  2.7967e+01  1.1819e-02  6.1660e-03  2.5765e-03  0:00:11   62
  1939  1.1583e-02  1.6655e-02  2.9212e-02  2.9475e+01  1.1562e-02  6.1058e-03  2.5674e-03  0:00:09   61
  1940  1.1309e-02  1.6769e-02  2.9248e-02  3.1199e+01  1.1288e-02  6.0486e-03  2.5694e-03  0:00:07   60
  1941  1.1047e-02  1.6927e-02  2.9250e-02  3.3061e+01  1.1025e-02  5.9914e-03  2.5717e-03  0:00:06   59
  1942  1.0813e-02  1.7100e-02  2.9223e-02  3.4776e+01  1.0790e-02  5.9341e-03  2.5528e-03  0:00:04   58
  1943  1.0588e-02  1.7313e-02  2.9184e-02  3.6618e+01  1.0565e-02  5.8786e-03  2.5547e-03  0:00:03   57
  1944  1.0359e-02  1.7551e-02  2.9116e-02  3.8530e+01  1.0335e-02  5.8325e-03  2.5447e-03  0:00:03   56
  1945  1.0142e-02  1.7797e-02  2.9009e-02  4.0072e+01  1.0117e-02  5.7839e-03  2.5168e-03  0:00:02   55
  1946  9.9406e-03  1.8053e-02  2.8878e-02  4.1405e+01  9.9151e-03  5.7327e-03  2.5259e-03  0:00:12   54
  1947  9.7844e-03  1.8259e-02  2.8712e-02  4.2454e+01  9.7580e-03  5.6855e-03  2.4973e-03  0:00:10   53

  iter  continuity  x-velocity  y-velocity  z-velocity      energy           k       omega     time/iter
  1948  9.6638e-03  1.8406e-02  2.8505e-02  4.3337e+01  9.6366e-03  5.6337e-03  2.4796e-03  0:00:08   52
  1949  9.5636e-03  1.8431e-02  2.8275e-02  4.3648e+01  9.5354e-03  5.5886e-03  2.4611e-03  0:00:06   51
  1950  9.5011e-03  1.8331e-02  2.8023e-02  4.3961e+01  9.4719e-03  5.5511e-03  2.4235e-03  0:00:05   50
  1951  9.4573e-03  1.8135e-02  2.7741e-02  4.4106e+01  9.4270e-03  5.5134e-03  2.4063e-03  0:00:04   49
  1952  9.4477e-03  1.7913e-02  2.7452e-02  4.4297e+01  9.4160e-03  5.4791e-03  2.3660e-03  0:00:03   48
  1953  9.4307e-03  1.7684e-02  2.7150e-02  4.4219e+01  9.3974e-03  5.4489e-03  2.3272e-03  0:00:02   47
  1954  9.4340e-03  1.7467e-02  2.6839e-02  4.4343e+01  9.3994e-03  5.4158e-03  2.2997e-03  0:00:02   46
  1955  9.3953e-03  1.7264e-02  2.6508e-02  4.4474e+01  9.3593e-03  5.3993e-03  2.2558e-03  0:00:10   45
  1956  9.3071e-03  1.7078e-02  2.6182e-02  4.4765e+01  9.2696e-03  5.3845e-03  2.2221e-03  0:00:08   44
  1957  9.1772e-03  1.6895e-02  2.5845e-02  4.4850e+01  9.1385e-03  5.3829e-03  2.1888e-03  0:00:06   43
  1958  9.0181e-03  1.6746e-02  2.5494e-02  4.5154e+01  8.9781e-03  5.3767e-03  2.1510e-03  0:00:05   42

  iter  continuity  x-velocity  y-velocity  z-velocity      energy           k       omega     time/iter
  1959  8.8308e-03  1.6645e-02  2.5155e-02  4.5901e+01  8.7895e-03  5.3723e-03  2.1103e-03  0:00:04   41
  1960  8.6227e-03  1.6597e-02  2.4845e-02  4.7021e+01  8.5801e-03  5.3716e-03  2.0731e-03  0:00:03   40
  1961  8.4198e-03  1.6607e-02  2.4574e-02  4.8424e+01  8.3760e-03  5.3610e-03  2.0466e-03  0:00:02   39
  1962  8.2192e-03  1.6674e-02  2.4355e-02  5.0205e+01  8.1741e-03  5.3436e-03  2.0202e-03  0:00:02   38
  1963  8.0275e-03  1.6793e-02  2.4192e-02  5.1751e+01  7.9813e-03  5.3143e-03  2.0026e-03  0:00:01   37
  1964  7.8531e-03  1.6955e-02  2.4070e-02  5.3016e+01  7.8060e-03  5.2906e-03  1.9957e-03  0:00:01   36
  1965  7.6950e-03  1.7164e-02  2.3992e-02  5.5269e+01  7.6471e-03  5.2781e-03  1.9927e-03  0:00:08   35
  1966  7.5518e-03  1.7410e-02  2.3970e-02  5.7498e+01  7.5033e-03  5.2571e-03  1.9912e-03  0:00:06   34
  1967  7.4383e-03  1.7706e-02  2.3999e-02  6.0000e+01  7.3894e-03  5.2353e-03  1.9883e-03  0:00:05   33
  1968  7.3409e-03  1.8047e-02  2.4075e-02  6.2381e+01  7.2917e-03  5.2247e-03  1.9909e-03  0:00:04   32
  1969  7.2722e-03  1.8435e-02  2.4197e-02  6.5395e+01  7.2227e-03  5.2035e-03  1.9881e-03  0:00:03   31

  iter  continuity  x-velocity  y-velocity  z-velocity      energy           k       omega     time/iter
  1970  7.2166e-03  1.8855e-02  2.4360e-02  6.8294e+01  7.1668e-03  5.1671e-03  1.9905e-03  0:00:02   30
  1971  7.1900e-03  1.9295e-02  2.4558e-02  7.0862e+01  7.1399e-03  5.1442e-03  1.9947e-03  0:00:02   29
  1972  7.1899e-03  1.9747e-02  2.4775e-02  7.3518e+01  7.1396e-03  5.1230e-03  1.9934e-03  0:00:01   28
  1973  7.2019e-03  2.0196e-02  2.4979e-02  7.5814e+01  7.1515e-03  5.0961e-03  1.9874e-03  0:00:01   27
  1974  7.2380e-03  2.0648e-02  2.5163e-02  7.7662e+01  7.1877e-03  5.0637e-03  1.9850e-03  0:00:01   26
  1975  7.2903e-03  2.1081e-02  2.5332e-02  7.9361e+01  7.2402e-03  5.0374e-03  1.9776e-03  0:00:06   25
  1976  7.3391e-03  2.1491e-02  2.5488e-02  8.0652e+01  7.2891e-03  5.0131e-03  1.9701e-03  0:00:04   24
  1977  7.3700e-03  2.1879e-02  2.5651e-02  8.1433e+01  7.3202e-03  4.9905e-03  1.9566e-03  0:00:03   23
  1978  7.3943e-03  2.2242e-02  2.5839e-02  8.1861e+01  7.3447e-03  4.9801e-03  1.9500e-03  0:00:03   22
  1979  7.4253e-03  2.2587e-02  2.6045e-02  8.2173e+01  7.3759e-03  4.9739e-03  1.9438e-03  0:00:02   21
  1980  7.4604e-03  2.2910e-02  2.6287e-02  8.2381e+01  7.4114e-03  4.9696e-03  1.9328e-03  0:00:01   20

  iter  continuity  x-velocity  y-velocity  z-velocity      energy           k       omega     time/iter
  1981  7.4979e-03  2.3213e-02  2.6553e-02  8.2766e+01  7.4493e-03  4.9598e-03  1.9250e-03  0:00:01   19
  1982  7.5495e-03  2.3491e-02  2.6835e-02  8.3382e+01  7.5014e-03  4.9536e-03  1.9136e-03  0:00:01   18
  1983  7.6156e-03  2.3747e-02  2.7104e-02  8.3902e+01  7.5681e-03  4.9410e-03  1.9056e-03  0:00:01   17
  1984  7.6965e-03  2.3996e-02  2.7351e-02  8.4290e+01  7.6497e-03  4.9296e-03  1.8983e-03  0:00:04   16
  1985  7.7929e-03  2.4236e-02  2.7568e-02  8.4474e+01  7.7468e-03  4.9273e-03  1.8908e-03  0:00:03   15
  1986  7.8947e-03  2.4462e-02  2.7765e-02  8.4792e+01  7.8494e-03  4.9297e-03  1.8813e-03  0:00:02   14
  1987  7.9951e-03  2.4674e-02  2.7963e-02  8.5007e+01  7.9505e-03  4.9217e-03  1.8671e-03  0:00:02   13
  1988  8.0976e-03  2.4873e-02  2.8144e-02  8.5129e+01  8.0539e-03  4.9184e-03  1.8573e-03  0:00:01   12
  1989  8.1871e-03  2.5051e-02  2.8297e-02  8.5164e+01  8.1442e-03  4.9208e-03  1.8462e-03  0:00:01   11
  1990  8.2615e-03  2.5210e-02  2.8418e-02  8.4929e+01  8.2193e-03  4.9148e-03  1.8334e-03  0:00:01   10
  1991  8.3094e-03  2.5341e-02  2.8516e-02  8.4555e+01  8.2679e-03  4.9073e-03  1.8201e-03  0:00:00    9

  iter  continuity  x-velocity  y-velocity  z-velocity      energy           k       omega     time/iter
  1992  8.3256e-03  2.5456e-02  2.8596e-02  8.4285e+01  8.2848e-03  4.9026e-03  1.8118e-03  0:00:00    8
  1993  8.3046e-03  2.5554e-02  2.8660e-02  8.4047e+01  8.2644e-03  4.9004e-03  1.8119e-03  0:00:02    7
  1994  8.2361e-03  2.5630e-02  2.8718e-02  8.3558e+01  8.1966e-03  4.9064e-03  1.8147e-03  0:00:01    6
  1995  8.1228e-03  2.5685e-02  2.8779e-02  8.2795e+01  8.0839e-03  4.9160e-03  1.8096e-03  0:00:01    5
  1996  7.9620e-03  2.5718e-02  2.8850e-02  8.2000e+01  7.9238e-03  4.9350e-03  1.8096e-03  0:00:00    4
  1997  7.7502e-03  2.5723e-02  2.8926e-02  8.0904e+01  7.7128e-03  4.9566e-03  1.8122e-03  0:00:00    3
  1998  7.4951e-03  2.5711e-02  2.9020e-02  7.9533e+01  7.4584e-03  4.9794e-03  1.8153e-03  0:00:00    2
  1999  7.2075e-03  2.5678e-02  2.9136e-02  7.8080e+01  7.1717e-03  5.0018e-03  1.8170e-03  0:00:00    1
  2000  6.8867e-03  2.5619e-02  2.9269e-02  7.6419e+01  6.8518e-03  5.0224e-03  1.8216e-03  0:00:00    0

> 
adjoint/                parallel/               server/
define/                 parametric-study/       solve/
display/                plot/                   surface/
exit                    preferences/            turbo-workflow/
file/                   print-license-usage     views/
mesh/                   report/

> /file/write-case-data project1
Fast-loading "C:\PROGRA~1\ANSYSI~1\v231\fluent\fluent23.1.0\\addons\afd\lib\hdfio.bin"
Done.

Writing to Engs-30669:"C:\Users\kebl7595\Desktop\CFD\Runs\Flap\Re 3e5\AR 1\project1.cas.h5" in NODE0 mode and compression level 1 ...
       19422 cells,     1 zone  ...
       65325 faces,     7 zones ...
       26676 nodes,     1 zone  ...
  Done.
Done.

Writing to Engs-30669:"C:\Users\kebl7595\Desktop\CFD\Runs\Flap\Re 3e5\AR 1\project1.dat.h5" in NODE0 mode and compression level 1 ...
  Writing results.
Done.

> /file/export/ascii "./surface.dat" wing () no pressure mach-number quit no

Writing "./surface.dat"...

Writing information to ascii file ...
Done.


> /report/forces/wall-forces y -0.342020 -0.939693 0 y "Lift"

> /report/forces/wall-forces y 0.939693 -0.342020 0 y "Drag"

> /exit

Posting ANSYS Product Improvement Program performance data 
Done.
Auto-Transcript Stop Time:  12:25:49, 22 May 2024 GMT Daylight Time 
Total Transcript Time: 3 Minute 48 Second.
