Auto-Transcript Start Time:  10:09:47, 22 May 2024 GMT Daylight Time 
Current Directory: "C:\Users\kebl7595\Desktop\CFD\Runs\Flap\21 degree"

              Welcome to ANSYS Fluent 2023 R1

              Copyright 1987-2023 ANSYS, Inc. All Rights Reserved.
              Unauthorized use, distribution or duplication is prohibited.
              This product is subject to U.S. laws governing export and re-export.
              For full Legal Notice, see documentation.

Build Time: Nov 28 2022 09:52:02 EST  Build Id: 10208  
 
Connected License Server List:	1055@ansyslic.eng.ox.ac.uk

*********************************************
Info: Your license enables 4-way parallel execution.
For faster simulations, please start the application with the appropriate parallel options.
*********************************************


     --------------------------------------------------------------
     This is an academic version of ANSYS FLUENT. Usage of this product
     license is limited to the terms and conditions specified in your ANSYS
     license form, additional terms section.
     --------------------------------------------------------------
Host spawning Node 0 on machine "Engs-30669" (win64).

------------------------------------------------------------------------------------
ID    Hostname    Core  O.S.         PID    Vendor                                 
------------------------------------------------------------------------------------
n0    Engs-30669  1/32  Windows-x64  41948  13th Gen Intel(R) Core(TM) i9-13900    
host  Engs-30669        Windows-x64  30088  13th Gen Intel(R) Core(TM) i9-13900    

MPI Option Selected: intel
------------------------------------------------------------------------------------

Cleanup script file is C:\\Users\\kebl7595\\Desktop\\CFD\\Runs\\Flap\\21 degree\\cleanup-fluent-Engs-30669-30088.bat

Posting ANSYS Product Improvement Program startup data
Done.

Reading journal file C:/Users/kebl7595/Desktop/CFD/Runs/Flap/21 degree/project1.jou...

> /file/set-batch-options no no no 

> 
define/                 parametric-study/       solve/
display/                plot/                   surface/
exit                    preferences/            switch-to-meshing-mode
file/                   print-license-usage     turbo-workflow/
mesh/                   report/                 views/
parallel/               server/

> /file/import/cgns/mesh  "./project1.cgns"
Engs-30669 has other FLUENT parallel processes running.                       Process affinity not being set.

Importing "./project1.cgns"

Opening library "C:\\PROGRA~1\\ANSYSI~1\\v231\\fluent\\fluent23.1.0\\vki\\win64\\devtools4.4.6.dll"... done.

Read    33000 nodes
   24072 hexahedral cells, zone  1
   17404 quadrilateral wall faces, zone  2.
   63040 quadrilateral interior faces, zone  3.
     474 quadrilateral interface faces, zone  4.

Building...
     mesh
     materials,
     interface,
     domains,
     zones,
	interface-default_subface
	default_interior-1
	default_subface
	default
     parallel,
The automatic selection for flux type has changed to Rhie-Chow: momentum based.

Done.


> 
adjoint/                parallel/               server/
define/                 parametric-study/       solve/
display/                plot/                   surface/
exit                    preferences/            turbo-workflow/
file/                   print-license-usage     views/
mesh/                   report/

> /define/models/solver/density-based-implicit yes

> 
adjoint/                parallel/               server/
define/                 parametric-study/       solve/
display/                plot/                   surface/
exit                    preferences/            turbo-workflow/
file/                   print-license-usage     views/
mesh/                   report/

> /define/models/energy? yes yes invalid command [yes]
yes

> /define/models/viscous/kw-standard? yes

> 
adjoint/                parallel/               server/
define/                 parametric-study/       solve/
display/                plot/                   surface/
exit                    preferences/            turbo-workflow/
file/                   print-license-usage     views/
mesh/                   report/

> /define/materials/change-create air air air is a fluid
yes 
Density
ideal-gas no data required.

no no no no no no

> 
adjoint/                parallel/               server/
define/                 parametric-study/       solve/
display/                plot/                   surface/
exit                    preferences/            turbo-workflow/
file/                   print-license-usage     views/
mesh/                   report/

> /mesh/modify-zones/sep-face-zone-angle 2 90 yes

 8024 faces in contiguous region 0
 441 faces in contiguous region 1
 618 faces in contiguous region 2
 8024 faces in contiguous region 3
 297 faces in contiguous region 4
 Separates zone 2 into 5 zone(s).
Updating new zone information...
   created new zone default_subface:009 from default_subface
   created new zone default_subface:008 from default_subface
   created new zone default_subface:007 from default_subface
   created new zone default_subface:006 from default_subface
done.

> 
adjoint/                parallel/               server/
define/                 parametric-study/       solve/
display/                plot/                   surface/
exit                    preferences/            turbo-workflow/
file/                   print-license-usage     views/
mesh/                   report/

> /define/boundary-conditions/zone-name  6 wing

> /define/boundary-conditions/zone-name  2 sym1

> /define/boundary-conditions/zone-name  8 sym2

> 
adjoint/                parallel/               server/
define/                 parametric-study/       solve/
display/                plot/                   surface/
exit                    preferences/            turbo-workflow/
file/                   print-license-usage     views/
mesh/                   report/

> /define/boundary-conditions/zone-name  7 far1

> /define/boundary-conditions/zone-name 9 far2

> 
adjoint/                parallel/               server/
define/                 parametric-study/       solve/
display/                plot/                   surface/
exit                    preferences/            turbo-workflow/
file/                   print-license-usage     views/
mesh/                   report/

> /define/boundary-conditions/zone-type  7 pressure-far-field

> /define/boundary-conditions/zone-type 9 pressure-far-field

> /define/boundary-conditions/zone-type  2 symmetry

> /define/boundary-conditions/zone-type  8 symmetry

> 
adjoint/                parallel/               server/
define/                 parametric-study/       solve/
display/                plot/                   surface/
exit                    preferences/            turbo-workflow/
file/                   print-license-usage     views/
mesh/                   report/

> /define/boundary-conditions/pressure-far-field (far2 far1)
far1 no 0 no 0.1 no 300 yes no 0.93358 no -0.35837 no 0. no yes 5 0.02

> /define/boundary-conditions/pressure-far-field (far2 far1)
far2 no 0 no 0.1 no 300 yes no 0.93358 no -0.35837 no 0. no yes 5 0.02

> 
adjoint/                parallel/               server/
define/                 parametric-study/       solve/
display/                plot/                   surface/
exit                    preferences/            turbo-workflow/
file/                   print-license-usage     views/
mesh/                   report/

> /solve/initialize/compute-defaults/pressure-far-field (far2 far1)
far1

> /solve/initialize/initialize-flow

> 
adjoint/                parallel/               server/
define/                 parametric-study/       solve/
display/                plot/                   surface/
exit                    preferences/            turbo-workflow/
file/                   print-license-usage     views/
mesh/                   report/

> /solve/monitors/residual/convergence-criteria 1.e-9 1.e-9 1.e-9 1.e-9 1.e-9 1.e-9 1.e-9

> /solve/iterate 2000

  iter  continuity  x-velocity  y-velocity  z-velocity      energy           k       omega     time/iter
     1  1.0000e+00  1.0000e+00  1.0000e+00  1.0000e+00  1.0000e+00  4.3994e-02  4.9165e-02  0:00:00 1999
     2  4.6140e-01  2.5849e-01  2.7256e-01  1.0000e+00  4.6381e-01  3.8886e-02  3.4873e-02  0:33:18 1998
     3  2.0947e-01  1.4600e-01  1.7057e-01  1.0000e+00  2.0976e-01  3.4663e-02  2.9293e-02  0:26:38 1997
     4  1.4937e-01  8.5358e-02  1.1303e-01  9.4171e-01  1.4993e-01  3.1255e-02  2.6080e-02  0:21:17 1996
     5  1.2279e-01  5.8611e-02  8.9821e-02  9.7579e-01  1.2363e-01  2.8493e-02  2.4126e-02  0:17:01 1995
     6  1.0587e-01  4.1376e-02  7.5759e-02  9.2950e-01  1.0666e-01  2.6111e-02  2.2486e-02  0:20:16 1994
     7  9.2144e-02  2.8103e-02  6.5222e-02  9.2930e-01  9.2758e-02  2.4032e-02  2.1041e-02  0:16:12 1993
     8  8.3514e-02  1.9348e-02  5.8257e-02  9.2547e-01  8.4026e-02  2.2260e-02  1.9709e-02  0:12:57 1992
     9  7.6677e-02  1.4901e-02  5.4511e-02  9.8460e-01  7.7132e-02  2.0785e-02  1.8529e-02  0:17:00 1991
    10  7.0029e-02  1.3292e-02  5.3373e-02  1.0112e+00  7.0422e-02  1.9509e-02  1.7514e-02  0:13:35 1990
    11  6.4303e-02  1.2728e-02  5.4330e-02  9.5858e-01  6.4635e-02  1.8411e-02  1.6607e-02  0:10:52 1989

  iter  continuity  x-velocity  y-velocity  z-velocity      energy           k       omega     time/iter
    12  6.0025e-02  1.2235e-02  5.6634e-02  8.5333e-01  6.0304e-02  1.7455e-02  1.5785e-02  0:08:41 1988
    13  5.7679e-02  1.1526e-02  6.0144e-02  7.9263e-01  5.7920e-02  1.6634e-02  1.5057e-02  0:13:34 1987
    14  5.6950e-02  1.0621e-02  6.4113e-02  8.1169e-01  5.7169e-02  1.5919e-02  1.4369e-02  0:10:51 1986
    15  5.7417e-02  9.9748e-03  6.7513e-02  8.8060e-01  5.7625e-02  1.5312e-02  1.3760e-02  0:08:41 1985
    16  5.9160e-02  9.9279e-03  7.0213e-02  9.7969e-01  5.9370e-02  1.4748e-02  1.3244e-02  0:06:56 1984
    17  6.1517e-02  1.0546e-02  7.1647e-02  1.0808e+00  6.1740e-02  1.4252e-02  1.2773e-02  0:12:09 1983
    18  6.3123e-02  1.1778e-02  7.2511e-02  1.1730e+00  6.3360e-02  1.3819e-02  1.2413e-02  0:09:43 1982
    19  6.4475e-02  1.3071e-02  7.2642e-02  1.2429e+00  6.4731e-02  1.3428e-02  1.2132e-02  0:07:46 1981
    20  6.4669e-02  1.4174e-02  7.2162e-02  1.2957e+00  6.4926e-02  1.3090e-02  1.1836e-02  0:12:49 1980
    21  6.2849e-02  1.5284e-02  7.1186e-02  1.3107e+00  6.3087e-02  1.2813e-02  1.1648e-02  0:10:15 1979
    22  5.8600e-02  1.6254e-02  6.9394e-02  1.3008e+00  5.8797e-02  1.2558e-02  1.1363e-02  0:08:12 1978

  iter  continuity  x-velocity  y-velocity  z-velocity      energy           k       omega     time/iter
    23  5.2815e-02  1.6771e-02  6.7707e-02  1.2676e+00  5.2960e-02  1.2365e-02  1.1143e-02  0:06:33 1977
    24  4.6217e-02  1.6716e-02  6.6102e-02  1.2151e+00  4.6309e-02  1.2213e-02  1.0833e-02  0:11:50 1976
    25  3.9579e-02  1.6341e-02  6.4513e-02  1.1463e+00  3.9628e-02  1.2075e-02  1.0553e-02  0:09:27 1975
    26  3.3927e-02  1.5391e-02  6.2919e-02  1.0824e+00  3.3950e-02  1.1935e-02  1.0362e-02  0:14:08 1974
    27  2.9906e-02  1.3991e-02  6.1406e-02  1.0286e+00  2.9920e-02  1.1836e-02  1.0175e-02  0:11:18 1973
    28  2.7797e-02  1.2355e-02  6.0120e-02  9.8021e-01  2.7819e-02  1.1747e-02  9.8928e-03  0:09:02 1972
    29  2.6777e-02  1.0573e-02  5.8963e-02  9.3662e-01  2.6812e-02  1.1659e-02  9.5933e-03  0:13:48 1971
    30  2.6604e-02  8.9570e-03  5.7905e-02  8.9587e-01  2.6652e-02  1.1564e-02  9.3834e-03  0:11:02 1970
    31  2.6943e-02  7.7995e-03  5.6966e-02  8.5782e-01  2.6999e-02  1.1443e-02  9.1272e-03  0:08:49 1969
    32  2.7544e-02  6.9684e-03  5.6021e-02  8.2363e-01  2.7604e-02  1.1334e-02  8.8672e-03  0:13:37 1968
    33  2.8197e-02  6.3005e-03  5.5031e-02  7.9198e-01  2.8260e-02  1.1260e-02  8.6812e-03  0:10:53 1967

  iter  continuity  x-velocity  y-velocity  z-velocity      energy           k       omega     time/iter
    34  2.8712e-02  5.7423e-03  5.4011e-02  7.6430e-01  2.8774e-02  1.1186e-02  8.4907e-03  0:08:42 1966
    35  2.9017e-02  5.2826e-03  5.2931e-02  7.3191e-01  2.9074e-02  1.1117e-02  8.2876e-03  0:06:58 1965
    36  2.9100e-02  4.8508e-03  5.1746e-02  6.9767e-01  2.9148e-02  1.1073e-02  8.1249e-03  0:12:07 1964
    37  2.8985e-02  4.4984e-03  5.0488e-02  6.5960e-01  2.9022e-02  1.1048e-02  7.9983e-03  0:09:41 1963
    38  2.8699e-02  4.2305e-03  4.9151e-02  6.2213e-01  2.8722e-02  1.1032e-02  7.8583e-03  0:07:45 1962
    39  2.8285e-02  4.0540e-03  4.7709e-02  5.8493e-01  2.8293e-02  1.1020e-02  7.7372e-03  0:12:44 1961
    40  2.7725e-02  3.9673e-03  4.6143e-02  5.4863e-01  2.7717e-02  1.1018e-02  7.6446e-03  0:10:11 1960
    41  2.7196e-02  3.9447e-03  4.4480e-02  5.1458e-01  2.7173e-02  1.1007e-02  7.5631e-03  0:08:08 1959
    42  2.6810e-02  4.0064e-03  4.2779e-02  4.8288e-01  2.6774e-02  1.0999e-02  7.4962e-03  0:06:30 1958
    43  2.6513e-02  4.0926e-03  4.1084e-02  4.5473e-01  2.6466e-02  1.0995e-02  7.4492e-03  0:11:44 1957
    44  2.6230e-02  4.2017e-03  3.9429e-02  4.3244e-01  2.6174e-02  1.0990e-02  7.4450e-03  0:09:23 1956

  iter  continuity  x-velocity  y-velocity  z-velocity      energy           k       omega     time/iter
    45  2.6129e-02  4.3087e-03  3.7846e-02  4.1519e-01  2.6069e-02  1.0969e-02  7.4488e-03  0:07:30 1955
    46  2.6153e-02  4.3944e-03  3.6341e-02  4.0834e-01  2.6093e-02  1.0955e-02  7.4451e-03  0:12:30 1954
    47  2.6370e-02  4.5206e-03  3.5081e-02  4.0977e-01  2.6316e-02  1.0940e-02  7.4376e-03  0:10:00 1953
    48  2.6828e-02  4.6799e-03  3.4062e-02  4.1683e-01  2.6783e-02  1.0923e-02  7.4777e-03  0:08:00 1952
    49  2.7513e-02  4.8973e-03  3.3260e-02  4.3054e-01  2.7483e-02  1.0938e-02  7.4931e-03  0:12:54 1951
    50  2.8535e-02  5.1278e-03  3.2809e-02  4.4789e-01  2.8522e-02  1.0968e-02  7.5555e-03  0:10:19 1950
    51  2.9931e-02  5.3808e-03  3.2725e-02  4.6391e-01  2.9937e-02  1.1032e-02  7.5701e-03  0:08:15 1949
    52  3.1574e-02  5.6348e-03  3.2936e-02  4.7638e-01  3.1600e-02  1.1093e-02  7.5865e-03  0:06:36 1948
    53  3.3220e-02  5.7875e-03  3.3551e-02  4.9147e-01  3.3265e-02  1.1249e-02  7.6511e-03  0:11:46 1947
    54  3.5179e-02  6.0010e-03  3.4354e-02  5.0607e-01  3.5243e-02  1.1327e-02  7.6617e-03  0:09:24 1946
    55  3.6818e-02  6.1038e-03  3.5411e-02  5.1554e-01  3.6898e-02  1.1507e-02  7.6566e-03  0:07:31 1945

  iter  continuity  x-velocity  y-velocity  z-velocity      energy           k       omega     time/iter
    56  3.8121e-02  6.1750e-03  3.6542e-02  5.2397e-01  3.8215e-02  1.1656e-02  7.6878e-03  0:12:30 1944
    57  3.9258e-02  6.1360e-03  3.7633e-02  5.3376e-01  3.9367e-02  1.1845e-02  7.7629e-03  0:09:59 1943
    58  4.0012e-02  6.1077e-03  3.8566e-02  5.4286e-01  4.0127e-02  1.1854e-02  7.7671e-03  0:07:59 1942
    59  3.9970e-02  5.8986e-03  3.9079e-02  5.4884e-01  4.0081e-02  1.2078e-02  7.7842e-03  0:06:23 1941
    60  3.8864e-02  5.6422e-03  3.9085e-02  5.5159e-01  3.8962e-02  1.2291e-02  7.7841e-03  0:11:34 1940
    61  3.7302e-02  5.3467e-03  3.8707e-02  5.5146e-01  3.7385e-02  1.2549e-02  7.8504e-03  0:09:15 1939
    62  3.5721e-02  5.0291e-03  3.8241e-02  5.4594e-01  3.5788e-02  1.2650e-02  7.8302e-03  0:07:24 1938
    63  3.4461e-02  4.7577e-03  3.7561e-02  5.4033e-01  3.4510e-02  1.2661e-02  7.7888e-03  0:05:55 1937
    64  3.3554e-02  4.5904e-03  3.7083e-02  5.3270e-01  3.3586e-02  1.2886e-02  7.8494e-03  0:11:11 1936
    65  3.2651e-02  4.4113e-03  3.6248e-02  5.2270e-01  3.2669e-02  1.3061e-02  7.8535e-03  0:08:57 1935
    66  3.1718e-02  4.2039e-03  3.5265e-02  5.1107e-01  3.1726e-02  1.3270e-02  7.9377e-03  0:07:09 1934

  iter  continuity  x-velocity  y-velocity  z-velocity      energy           k       omega     time/iter
    67  3.0944e-02  4.0417e-03  3.4602e-02  4.9686e-01  3.0946e-02  1.3527e-02  7.9285e-03  0:12:10 1933
    68  3.0400e-02  3.9332e-03  3.4012e-02  4.8206e-01  3.0398e-02  1.3561e-02  7.9312e-03  0:09:43 1932
    69  3.0013e-02  3.8806e-03  3.3384e-02  4.6652e-01  3.0010e-02  1.3745e-02  7.9431e-03  0:07:46 1931
    70  2.9591e-02  3.8373e-03  3.2521e-02  4.5215e-01  2.9587e-02  1.3922e-02  7.9792e-03  0:06:13 1930
    71  2.9008e-02  3.8086e-03  3.1461e-02  4.3504e-01  2.9003e-02  1.4142e-02  7.9945e-03  0:11:24 1929
    72  2.8176e-02  3.7881e-03  3.0198e-02  4.1893e-01  2.8168e-02  1.4151e-02  8.0059e-03  0:09:07 1928
    73  2.7174e-02  3.7971e-03  2.8786e-02  4.0761e-01  2.7162e-02  1.4283e-02  8.0162e-03  0:07:17 1927
    74  2.5979e-02  3.8621e-03  2.7255e-02  4.0323e-01  2.5962e-02  1.4612e-02  7.9799e-03  0:12:15 1926
    75  2.4603e-02  4.0023e-03  2.5722e-02  4.0631e-01  2.4578e-02  1.4827e-02  7.9396e-03  0:09:48 1925
    76  2.3184e-02  4.1133e-03  2.4204e-02  4.1591e-01  2.3152e-02  1.4945e-02  7.9292e-03  0:07:50 1924
    77  2.1722e-02  4.1537e-03  2.2702e-02  4.3168e-01  2.1683e-02  1.5120e-02  7.9009e-03  0:12:40 1923

  iter  continuity  x-velocity  y-velocity  z-velocity      energy           k       omega     time/iter
    78  2.0327e-02  4.1444e-03  2.1289e-02  4.5167e-01  2.0283e-02  1.5345e-02  7.8796e-03  0:10:08 1922
    79  1.9217e-02  4.1158e-03  1.9999e-02  4.7449e-01  1.9172e-02  1.5625e-02  7.8627e-03  0:08:06 1921
    80  1.8368e-02  4.0567e-03  1.8648e-02  4.9980e-01  1.8324e-02  1.5884e-02  7.7994e-03  0:06:29 1920
    81  1.7749e-02  4.0392e-03  1.7793e-02  5.3159e-01  1.7709e-02  1.6091e-02  7.7400e-03  0:11:35 1919
    82  1.7381e-02  4.0358e-03  1.7319e-02  5.6629e-01  1.7347e-02  1.6352e-02  7.7290e-03  0:09:15 1918
    83  1.7286e-02  4.0542e-03  1.7180e-02  6.0124e-01  1.7259e-02  1.6673e-02  7.6893e-03  0:07:24 1917
    84  1.7353e-02  4.0870e-03  1.7343e-02  6.3225e-01  1.7335e-02  1.6959e-02  7.6464e-03  0:12:18 1916
    85  1.7503e-02  4.1214e-03  1.7730e-02  6.5518e-01  1.7494e-02  1.7223e-02  7.6018e-03  0:09:50 1915
    86  1.7557e-02  4.1749e-03  1.8237e-02  6.8031e-01  1.7555e-02  1.7570e-02  7.6043e-03  0:07:52 1914
    87  1.7513e-02  4.2397e-03  1.8812e-02  6.8747e-01  1.7517e-02  1.7932e-02  7.5633e-03  0:12:40 1913
    88  1.7243e-02  4.3162e-03  1.9406e-02  6.8967e-01  1.7252e-02  1.8241e-02  7.5499e-03  0:10:08 1912

  iter  continuity  x-velocity  y-velocity  z-velocity      energy           k       omega     time/iter
    89  1.7041e-02  4.4006e-03  1.9953e-02  6.8415e-01  1.7054e-02  1.8639e-02  7.5543e-03  0:08:06 1911
    90  1.6849e-02  4.5006e-03  2.0438e-02  6.7802e-01  1.6864e-02  1.9138e-02  7.5284e-03  0:06:29 1910
    91  1.6648e-02  4.5858e-03  2.0849e-02  6.7164e-01  1.6663e-02  1.9556e-02  7.5137e-03  0:11:32 1909
    92  1.6514e-02  4.6407e-03  2.1200e-02  6.6302e-01  1.6530e-02  1.9894e-02  7.5204e-03  0:09:14 1908
    93  1.6488e-02  4.6777e-03  2.1485e-02  6.5292e-01  1.6504e-02  2.0307e-02  7.5606e-03  0:07:23 1907
    94  1.6613e-02  4.6954e-03  2.1723e-02  6.4083e-01  1.6629e-02  2.0836e-02  7.5906e-03  0:12:15 1906
    95  1.6950e-02  4.7029e-03  2.1946e-02  6.2466e-01  1.6967e-02  2.1280e-02  7.5934e-03  0:09:48 1905
    96  1.7523e-02  4.6919e-03  2.2132e-02  6.0520e-01  1.7542e-02  2.1704e-02  7.5572e-03  0:07:50 1904
    97  1.8362e-02  4.6546e-03  2.2287e-02  5.8441e-01  1.8383e-02  2.1867e-02  7.5542e-03  0:12:36 1903
    98  1.9427e-02  4.5990e-03  2.2388e-02  5.6137e-01  1.9452e-02  2.2066e-02  7.5649e-03  0:10:05 1902
    99  2.0693e-02  4.5407e-03  2.2422e-02  5.3827e-01  2.0721e-02  2.2509e-02  7.5422e-03  0:14:24 1901

  iter  continuity  x-velocity  y-velocity  z-velocity      energy           k       omega     time/iter
   100  2.2097e-02  4.4577e-03  2.2408e-02  5.1615e-01  2.2128e-02  2.2901e-02  7.5171e-03  0:11:31 1900
   101  2.3572e-02  4.3837e-03  2.2348e-02  4.9968e-01  2.3606e-02  2.3159e-02  7.4789e-03  0:15:32 1899
   102  2.5047e-02  4.3169e-03  2.2270e-02  4.8834e-01  2.5083e-02  2.3229e-02  7.4299e-03  0:12:25 1898
   103  2.6476e-02  4.2676e-03  2.2142e-02  4.7978e-01  2.6515e-02  2.3127e-02  7.4074e-03  0:16:15 1897
   104  2.7747e-02  4.2447e-03  2.1962e-02  4.7558e-01  2.7788e-02  2.2959e-02  7.3697e-03  0:13:00 1896
   105  2.8767e-02  4.2552e-03  2.1736e-02  4.7599e-01  2.8809e-02  2.3085e-02  7.3233e-03  0:16:43 1895
   106  2.9516e-02  4.3005e-03  2.1532e-02  4.8371e-01  2.9560e-02  2.3191e-02  7.2509e-03  0:13:22 1894
   107  2.9956e-02  4.3951e-03  2.1362e-02  5.0101e-01  3.0000e-02  2.3282e-02  7.1788e-03  0:10:41 1893
   108  3.0025e-02  4.5315e-03  2.1180e-02  5.2030e-01  3.0069e-02  2.3331e-02  7.1010e-03  0:14:51 1892
   109  2.9755e-02  4.7021e-03  2.0989e-02  5.3706e-01  2.9799e-02  2.3365e-02  7.0159e-03  0:11:52 1891
   110  2.9078e-02  4.9041e-03  2.0776e-02  5.5694e-01  2.9120e-02  2.3190e-02  6.9358e-03  0:15:48 1890

  iter  continuity  x-velocity  y-velocity  z-velocity      energy           k       omega     time/iter
   111  2.7898e-02  5.1079e-03  2.0493e-02  5.8126e-01  2.7937e-02  2.2822e-02  6.8610e-03  0:12:38 1889
   112  2.6262e-02  5.3203e-03  2.0111e-02  5.9272e-01  2.6296e-02  2.2496e-02  6.8095e-03  0:16:23 1888
   113  2.4287e-02  5.5131e-03  1.9605e-02  5.9947e-01  2.4315e-02  2.2261e-02  6.7666e-03  0:13:06 1887
   114  2.2124e-02  5.6430e-03  1.8982e-02  6.0585e-01  2.2144e-02  2.2032e-02  6.6835e-03  0:16:46 1886
   115  1.9912e-02  5.7182e-03  1.8248e-02  6.1159e-01  1.9923e-02  2.1825e-02  6.5920e-03  0:13:24 1885
   116  1.7802e-02  5.7384e-03  1.7473e-02  6.1863e-01  1.7805e-02  2.1632e-02  6.4884e-03  0:17:00 1884
   117  1.6011e-02  5.6950e-03  1.6735e-02  6.1826e-01  1.6005e-02  2.1489e-02  6.3708e-03  0:13:35 1883
   118  1.4604e-02  5.5844e-03  1.6061e-02  6.1297e-01  1.4591e-02  2.1279e-02  6.2513e-03  0:17:08 1882
   119  1.3636e-02  5.4156e-03  1.5525e-02  6.0590e-01  1.3617e-02  2.1092e-02  6.1173e-03  0:13:42 1881
   120  1.3069e-02  5.2151e-03  1.5123e-02  5.9427e-01  1.3045e-02  2.0921e-02  5.9917e-03  0:17:14 1880
   121  1.2847e-02  5.0106e-03  1.4882e-02  5.7483e-01  1.2822e-02  2.0827e-02  5.8948e-03  0:13:46 1879

  iter  continuity  x-velocity  y-velocity  z-velocity      energy           k       omega     time/iter
   122  1.2889e-02  4.8225e-03  1.4799e-02  5.5246e-01  1.2863e-02  2.0707e-02  5.7949e-03  0:17:16 1878
   123  1.3101e-02  4.6349e-03  1.4859e-02  5.3042e-01  1.3074e-02  2.0566e-02  5.6897e-03  0:13:49 1877
   124  1.3390e-02  4.4663e-03  1.5018e-02  5.1194e-01  1.3363e-02  2.0372e-02  5.6067e-03  0:11:03 1876
   125  1.3706e-02  4.3138e-03  1.5226e-02  5.0048e-01  1.3679e-02  2.0249e-02  5.5445e-03  0:15:05 1875
   126  1.3991e-02  4.1954e-03  1.5467e-02  4.8965e-01  1.3963e-02  2.0072e-02  5.4914e-03  0:12:03 1874
   127  1.4225e-02  4.1271e-03  1.5713e-02  4.8327e-01  1.4197e-02  1.9901e-02  5.4231e-03  0:15:53 1873
   128  1.4431e-02  4.1057e-03  1.5961e-02  4.7994e-01  1.4401e-02  1.9794e-02  5.3699e-03  0:12:42 1872
   129  1.4579e-02  4.1211e-03  1.6198e-02  4.7721e-01  1.4547e-02  1.9591e-02  5.3230e-03  0:16:23 1871
   130  1.4671e-02  4.1709e-03  1.6416e-02  4.7847e-01  1.4638e-02  1.9402e-02  5.2994e-03  0:13:06 1870
   131  1.4745e-02  4.2490e-03  1.6611e-02  4.8382e-01  1.4710e-02  1.9290e-02  5.2832e-03  0:16:43 1869
   132  1.4852e-02  4.3435e-03  1.6785e-02  4.9237e-01  1.4815e-02  1.9255e-02  5.2746e-03  0:13:22 1868

  iter  continuity  x-velocity  y-velocity  z-velocity      energy           k       omega     time/iter
   133  1.5004e-02  4.4323e-03  1.6935e-02  5.0634e-01  1.4965e-02  1.9239e-02  5.2606e-03  0:16:54 1867
   134  1.5189e-02  4.5159e-03  1.7063e-02  5.2225e-01  1.5149e-02  1.9251e-02  5.2854e-03  0:13:31 1866
   135  1.5370e-02  4.5780e-03  1.7167e-02  5.4202e-01  1.5329e-02  1.9344e-02  5.3043e-03  0:17:01 1865
   136  1.5531e-02  4.6182e-03  1.7237e-02  5.6077e-01  1.5490e-02  1.9460e-02  5.3390e-03  0:13:37 1864
   137  1.5636e-02  4.6482e-03  1.7271e-02  5.8032e-01  1.5595e-02  1.9579e-02  5.3621e-03  0:10:53 1863
   138  1.5706e-02  4.6673e-03  1.7294e-02  6.0118e-01  1.5666e-02  1.9647e-02  5.3704e-03  0:14:55 1862
   139  1.5759e-02  4.6833e-03  1.7311e-02  6.3176e-01  1.5719e-02  1.9576e-02  5.3952e-03  0:11:55 1861
   140  1.5802e-02  4.6961e-03  1.7320e-02  6.6653e-01  1.5764e-02  1.9342e-02  5.4142e-03  0:15:44 1860
   141  1.5805e-02  4.6990e-03  1.7316e-02  7.0213e-01  1.5769e-02  1.9004e-02  5.4332e-03  0:12:35 1859
   142  1.5781e-02  4.6993e-03  1.7325e-02  7.4162e-01  1.5747e-02  1.8730e-02  5.4152e-03  0:16:15 1858
   143  1.5753e-02  4.6932e-03  1.7333e-02  7.8433e-01  1.5722e-02  1.8601e-02  5.4168e-03  0:13:00 1857

  iter  continuity  x-velocity  y-velocity  z-velocity      energy           k       omega     time/iter
   144  1.5840e-02  4.6913e-03  1.7344e-02  8.2924e-01  1.5812e-02  1.8458e-02  5.4126e-03  0:16:35 1856
   145  1.6078e-02  4.6924e-03  1.7349e-02  8.8566e-01  1.6053e-02  1.8325e-02  5.4065e-03  0:13:15 1855
   146  1.6472e-02  4.6982e-03  1.7359e-02  9.4798e-01  1.6451e-02  1.8223e-02  5.3965e-03  0:16:47 1854
   147  1.6973e-02  4.7054e-03  1.7361e-02  1.0194e+00  1.6956e-02  1.8095e-02  5.4222e-03  0:13:25 1853
   148  1.7459e-02  4.7276e-03  1.7380e-02  1.0983e+00  1.7445e-02  1.7965e-02  5.4276e-03  0:16:54 1852
   149  1.7994e-02  4.7619e-03  1.7393e-02  1.1814e+00  1.7985e-02  1.7785e-02  5.4338e-03  0:13:31 1851
   150  1.8649e-02  4.8032e-03  1.7396e-02  1.2669e+00  1.8642e-02  1.7691e-02  5.4314e-03  0:16:58 1850
   151  1.9416e-02  4.8415e-03  1.7427e-02  1.3512e+00  1.9413e-02  1.7580e-02  5.4502e-03  0:13:34 1849
   152  2.0327e-02  4.8718e-03  1.7510e-02  1.4393e+00  2.0327e-02  1.7493e-02  5.4292e-03  0:17:01 1848
   153  2.1309e-02  4.9043e-03  1.7628e-02  1.5282e+00  2.1313e-02  1.7316e-02  5.4018e-03  0:13:36 1847
   154  2.2348e-02  4.9419e-03  1.7815e-02  1.6150e+00  2.2355e-02  1.7119e-02  5.3868e-03  0:17:02 1846

  iter  continuity  x-velocity  y-velocity  z-velocity      energy           k       omega     time/iter
   155  2.3318e-02  4.9705e-03  1.8009e-02  1.7056e+00  2.3329e-02  1.6995e-02  5.4042e-03  0:13:37 1845
   156  2.4190e-02  4.9731e-03  1.8226e-02  1.7881e+00  2.4204e-02  1.6820e-02  5.3806e-03  0:17:02 1844
   157  2.4906e-02  4.9581e-03  1.8381e-02  1.8635e+00  2.4923e-02  1.6647e-02  5.3464e-03  0:13:37 1843
   158  2.5462e-02  4.9381e-03  1.8494e-02  1.9279e+00  2.5482e-02  1.6418e-02  5.3115e-03  0:17:02 1842
   159  2.5737e-02  4.9179e-03  1.8509e-02  1.9835e+00  2.5759e-02  1.6156e-02  5.2659e-03  0:13:37 1841
   160  2.5626e-02  4.8889e-03  1.8423e-02  2.0303e+00  2.5648e-02  1.5958e-02  5.1862e-03  0:17:01 1840
   161  2.5095e-02  4.8632e-03  1.8230e-02  2.0722e+00  2.5118e-02  1.5825e-02  5.0960e-03  0:13:37 1839
   162  2.4200e-02  4.8264e-03  1.7900e-02  2.1083e+00  2.4221e-02  1.5647e-02  5.0136e-03  0:17:00 1838
   163  2.3039e-02  4.7884e-03  1.7463e-02  2.1379e+00  2.3059e-02  1.5495e-02  4.9483e-03  0:13:36 1837
   164  2.1683e-02  4.7687e-03  1.6983e-02  2.1661e+00  2.1700e-02  1.5351e-02  4.8786e-03  0:17:00 1836
   165  2.0213e-02  4.7299e-03  1.6467e-02  2.2022e+00  2.0227e-02  1.5176e-02  4.7989e-03  0:13:35 1835

  iter  continuity  x-velocity  y-velocity  z-velocity      energy           k       omega     time/iter
   166  1.8736e-02  4.6844e-03  1.5938e-02  2.2439e+00  1.8746e-02  1.4975e-02  4.7181e-03  0:16:59 1834
   167  1.7323e-02  4.6391e-03  1.5347e-02  2.2863e+00  1.7329e-02  1.4777e-02  4.6416e-03  0:13:34 1833
   168  1.6050e-02  4.5835e-03  1.4549e-02  2.3258e+00  1.6052e-02  1.4647e-02  4.5611e-03  0:16:58 1832
   169  1.4971e-02  4.5410e-03  1.3956e-02  2.3606e+00  1.4968e-02  1.4580e-02  4.4938e-03  0:13:34 1831
   170  1.4168e-02  4.5185e-03  1.3401e-02  2.3889e+00  1.4161e-02  1.4445e-02  4.4421e-03  0:10:51 1830
   171  1.3692e-02  4.5032e-03  1.2908e-02  2.4052e+00  1.3683e-02  1.4264e-02  4.3758e-03  0:14:46 1829
   172  1.3509e-02  4.4912e-03  1.2495e-02  2.4190e+00  1.3499e-02  1.4147e-02  4.3172e-03  0:11:48 1828
   173  1.3625e-02  4.4724e-03  1.2177e-02  2.4209e+00  1.3615e-02  1.3996e-02  4.2524e-03  0:15:32 1827
   174  1.4030e-02  4.4474e-03  1.1947e-02  2.4148e+00  1.4020e-02  1.3804e-02  4.1998e-03  0:12:25 1826
   175  1.4607e-02  4.4144e-03  1.1816e-02  2.3997e+00  1.4598e-02  1.3547e-02  4.1743e-03  0:16:01 1825
   176  1.5190e-02  4.3677e-03  1.1760e-02  2.3878e+00  1.5182e-02  1.3297e-02  4.1370e-03  0:12:48 1824

  iter  continuity  x-velocity  y-velocity  z-velocity      energy           k       omega     time/iter
   177  1.5792e-02  4.3225e-03  1.1767e-02  2.3511e+00  1.5784e-02  1.3056e-02  4.1193e-03  0:16:19 1823
   178  1.6255e-02  4.2796e-03  1.1827e-02  2.3292e+00  1.6246e-02  1.2825e-02  4.1000e-03  0:13:03 1822
   179  1.6663e-02  4.2391e-03  1.1952e-02  2.3203e+00  1.6652e-02  1.2598e-02  4.0948e-03  0:16:30 1821
   180  1.6838e-02  4.1966e-03  1.2125e-02  2.3405e+00  1.6824e-02  1.2380e-02  4.0869e-03  0:13:12 1820
   181  1.6912e-02  4.1558e-03  1.2332e-02  2.3846e+00  1.6894e-02  1.2161e-02  4.0794e-03  0:16:37 1819
   182  1.7080e-02  4.1205e-03  1.2559e-02  2.4174e+00  1.7060e-02  1.1946e-02  4.0875e-03  0:13:17 1818
   183  1.7424e-02  4.0855e-03  1.2801e-02  2.4199e+00  1.7403e-02  1.1732e-02  4.0817e-03  0:10:37 1817
   184  1.8012e-02  4.0423e-03  1.3058e-02  2.4345e+00  1.7992e-02  1.1527e-02  4.0841e-03  0:14:33 1816
   185  1.8848e-02  3.9957e-03  1.3315e-02  2.4463e+00  1.8830e-02  1.1299e-02  4.0797e-03  0:11:38 1815
   186  1.9924e-02  3.9469e-03  1.3562e-02  2.4516e+00  1.9909e-02  1.1111e-02  4.1010e-03  0:15:21 1814
   187  2.1349e-02  3.8993e-03  1.3782e-02  2.4519e+00  2.1339e-02  1.0926e-02  4.1004e-03  0:12:16 1813

  iter  continuity  x-velocity  y-velocity  z-velocity      energy           k       omega     time/iter
   188  2.3171e-02  3.8558e-03  1.3974e-02  2.4595e+00  2.3168e-02  1.0736e-02  4.0920e-03  0:15:51 1812
   189  2.5224e-02  3.8101e-03  1.4128e-02  2.4701e+00  2.5228e-02  1.0578e-02  4.0874e-03  0:12:40 1811
   190  2.6401e-02  3.7686e-03  1.4236e-02  2.4857e+00  2.6408e-02  1.0436e-02  4.0865e-03  0:16:10 1810
   191  2.7734e-02  3.7286e-03  1.4300e-02  2.4919e+00  2.7744e-02  1.0324e-02  4.0864e-03  0:12:56 1809
   192  2.9153e-02  3.6904e-03  1.4300e-02  2.4958e+00  2.9165e-02  1.0225e-02  4.0981e-03  0:16:22 1808
   193  3.0528e-02  3.6555e-03  1.4237e-02  2.5011e+00  3.0543e-02  1.0152e-02  4.1067e-03  0:13:05 1807
   194  3.1553e-02  3.6311e-03  1.4121e-02  2.4859e+00  3.1569e-02  1.0077e-02  4.0972e-03  0:16:29 1806
   195  3.2595e-02  3.6086e-03  1.3975e-02  2.4591e+00  3.2612e-02  9.9889e-03  4.0870e-03  0:13:11 1805
   196  3.3442e-02  3.5926e-03  1.3797e-02  2.4173e+00  3.3459e-02  9.8591e-03  4.0795e-03  0:16:33 1804
   197  3.4169e-02  3.5797e-03  1.3607e-02  2.3756e+00  3.4186e-02  9.7512e-03  4.0659e-03  0:13:14 1803
   198  3.4739e-02  3.5609e-03  1.3415e-02  2.3268e+00  3.4754e-02  9.6514e-03  4.0547e-03  0:16:35 1802

  iter  continuity  x-velocity  y-velocity  z-velocity      energy           k       omega     time/iter
   199  3.4866e-02  3.5439e-03  1.3233e-02  2.2785e+00  3.4880e-02  9.5616e-03  4.0415e-03  0:13:16 1801
   200  3.4550e-02  3.5272e-03  1.3070e-02  2.2174e+00  3.4562e-02  9.4690e-03  4.0072e-03  0:16:36 1800
   201  3.4059e-02  3.5010e-03  1.2918e-02  2.1630e+00  3.4067e-02  9.3856e-03  3.9745e-03  0:13:17 1799
   202  3.2980e-02  3.4706e-03  1.2748e-02  2.1031e+00  3.2985e-02  9.3159e-03  3.9498e-03  0:16:36 1798
   203  3.1097e-02  3.4628e-03  1.2505e-02  2.0389e+00  3.1097e-02  9.2525e-03  3.9217e-03  0:13:17 1797
   204  2.8565e-02  3.4809e-03  1.2148e-02  1.9854e+00  2.8558e-02  9.2033e-03  3.9017e-03  0:16:36 1796
   205  2.5781e-02  3.5256e-03  1.1642e-02  1.9373e+00  2.5767e-02  9.1753e-03  3.8708e-03  0:13:17 1795
   206  2.2989e-02  3.5574e-03  1.0965e-02  1.8914e+00  2.2969e-02  9.1709e-03  3.8421e-03  0:16:36 1794
   207  2.0362e-02  3.5496e-03  1.0162e-02  1.8731e+00  2.0336e-02  9.1519e-03  3.8079e-03  0:13:16 1793
   208  1.8085e-02  3.5122e-03  9.3094e-03  1.8562e+00  1.8055e-02  9.1328e-03  3.7719e-03  0:16:35 1792
   209  1.6242e-02  3.4588e-03  8.5095e-03  1.8517e+00  1.6208e-02  9.1225e-03  3.7386e-03  0:13:15 1791

  iter  continuity  x-velocity  y-velocity  z-velocity      energy           k       omega     time/iter
   210  1.4831e-02  3.4063e-03  7.8834e-03  1.8645e+00  1.4796e-02  9.1274e-03  3.7011e-03  0:16:34 1790
   211  1.3840e-02  3.3684e-03  7.5197e-03  1.8896e+00  1.3806e-02  9.1180e-03  3.6765e-03  0:13:15 1789
   212  1.3211e-02  3.3592e-03  7.4473e-03  1.9374e+00  1.3178e-02  9.1376e-03  3.6613e-03  0:16:33 1788
   213  1.2903e-02  3.3942e-03  7.6212e-03  1.9903e+00  1.2872e-02  9.1570e-03  3.6417e-03  0:13:14 1787
   214  1.2823e-02  3.4715e-03  7.9676e-03  2.0253e+00  1.2795e-02  9.1913e-03  3.6281e-03  0:16:32 1786
   215  1.2848e-02  3.5846e-03  8.3897e-03  2.0522e+00  1.2823e-02  9.1933e-03  3.6249e-03  0:13:13 1785
   216  1.2846e-02  3.7254e-03  8.8020e-03  2.0725e+00  1.2824e-02  9.2148e-03  3.6109e-03  0:16:31 1784
   217  1.2789e-02  3.8802e-03  9.1455e-03  2.0688e+00  1.2769e-02  9.2443e-03  3.5900e-03  0:13:12 1783
   218  1.2615e-02  4.0452e-03  9.3802e-03  2.0482e+00  1.2596e-02  9.2600e-03  3.5758e-03  0:16:30 1782
   219  1.2350e-02  4.2007e-03  9.5035e-03  2.0523e+00  1.2331e-02  9.2918e-03  3.5732e-03  0:13:12 1781
   220  1.2055e-02  4.3355e-03  9.5423e-03  2.0520e+00  1.2036e-02  9.3104e-03  3.5689e-03  0:16:29 1780

  iter  continuity  x-velocity  y-velocity  z-velocity      energy           k       omega     time/iter
   221  1.1667e-02  4.4286e-03  9.4861e-03  2.0565e+00  1.1647e-02  9.3028e-03  3.5503e-03  0:13:11 1779
   222  1.1285e-02  4.4638e-03  9.3603e-03  2.0888e+00  1.1264e-02  9.2901e-03  3.5376e-03  0:16:28 1778
   223  1.1023e-02  4.4484e-03  9.2182e-03  2.1339e+00  1.1000e-02  9.2448e-03  3.5183e-03  0:13:10 1777
   224  1.0858e-02  4.4049e-03  9.0831e-03  2.1827e+00  1.0834e-02  9.1943e-03  3.4938e-03  0:16:27 1776
   225  1.0743e-02  4.3227e-03  8.9713e-03  2.2170e+00  1.0717e-02  9.1686e-03  3.4754e-03  0:13:09 1775
   226  1.0614e-02  4.2239e-03  8.8760e-03  2.2441e+00  1.0587e-02  9.1304e-03  3.4538e-03  0:16:26 1774
   227  1.0438e-02  4.1076e-03  8.7869e-03  2.2703e+00  1.0411e-02  9.0662e-03  3.4352e-03  0:13:08 1773
   228  1.0284e-02  3.9670e-03  8.6804e-03  2.2729e+00  1.0256e-02  9.0041e-03  3.4151e-03  0:16:24 1772
   229  1.0220e-02  3.7946e-03  8.5642e-03  2.2593e+00  1.0192e-02  8.9123e-03  3.4051e-03  0:13:07 1771
   230  1.0149e-02  3.6207e-03  8.4417e-03  2.2239e+00  1.0120e-02  8.8462e-03  3.3967e-03  0:16:23 1770
   231  1.0086e-02  3.3825e-03  8.3052e-03  2.1847e+00  1.0056e-02  8.7758e-03  3.3822e-03  0:13:06 1769

  iter  continuity  x-velocity  y-velocity  z-velocity      energy           k       omega     time/iter
   232  1.0049e-02  3.1264e-03  8.1942e-03  2.1748e+00  1.0018e-02  8.6979e-03  3.3695e-03  0:16:22 1768
   233  1.0105e-02  2.8846e-03  8.1151e-03  2.2030e+00  1.0072e-02  8.6166e-03  3.3609e-03  0:13:05 1767
   234  1.0114e-02  2.7035e-03  8.0863e-03  2.2991e+00  1.0081e-02  8.5306e-03  3.3537e-03  0:22:14 1766
   235  1.0138e-02  2.5368e-03  8.0811e-03  2.4007e+00  1.0104e-02  8.4522e-03  3.3358e-03  0:17:47 1765
   236  1.0041e-02  2.3003e-03  8.0821e-03  2.3715e+00  1.0007e-02  8.3433e-03  3.3156e-03  0:20:06 1764
   237  9.9610e-03  2.1597e-03  8.1198e-03  2.2958e+00  9.9278e-03  8.2239e-03  3.2986e-03  0:16:04 1763
   238  9.8968e-03  2.0879e-03  8.1797e-03  2.2371e+00  9.8642e-03  8.1059e-03  3.2687e-03  0:18:43 1762
   239  9.8114e-03  2.0314e-03  8.2176e-03  2.1977e+00  9.7793e-03  8.0058e-03  3.2407e-03  0:14:58 1761
   240  9.6868e-03  1.9833e-03  8.2193e-03  2.2087e+00  9.6549e-03  7.9143e-03  3.2124e-03  0:17:50 1760
   241  9.5426e-03  1.9414e-03  8.1848e-03  2.2316e+00  9.5107e-03  7.8086e-03  3.1923e-03  0:14:16 1759
   242  9.3762e-03  1.9023e-03  8.1207e-03  2.2610e+00  9.3443e-03  7.7093e-03  3.1689e-03  0:11:24 1758

  iter  continuity  x-velocity  y-velocity  z-velocity      energy           k       omega     time/iter
   243  9.1866e-03  1.8663e-03  8.0410e-03  2.3136e+00  9.1546e-03  7.6171e-03  3.1538e-03  0:14:58 1757
   244  8.9809e-03  1.8318e-03  7.9607e-03  2.4097e+00  8.9488e-03  7.5533e-03  3.1339e-03  0:11:58 1756
   245  8.7672e-03  1.7999e-03  7.8956e-03  2.4334e+00  8.7350e-03  7.4770e-03  3.1172e-03  0:15:25 1755
   246  8.5500e-03  1.7721e-03  7.8501e-03  2.4089e+00  8.5179e-03  7.3694e-03  3.1024e-03  0:12:20 1754
   247  8.3313e-03  1.7474e-03  7.8195e-03  2.3873e+00  8.2993e-03  7.2563e-03  3.0839e-03  0:15:42 1753
   248  8.1173e-03  1.7264e-03  7.8025e-03  2.3876e+00  8.0854e-03  7.1457e-03  3.0701e-03  0:12:33 1752
   249  7.9067e-03  1.7082e-03  7.7985e-03  2.4437e+00  7.8751e-03  7.0498e-03  3.0500e-03  0:15:52 1751
   250  7.7050e-03  1.6921e-03  7.8049e-03  2.5367e+00  7.6737e-03  6.9559e-03  3.0212e-03  0:12:42 1750
   251  7.5074e-03  1.6775e-03  7.8174e-03  2.7142e+00  7.4765e-03  6.8735e-03  2.9987e-03  0:15:59 1749
   252  7.3244e-03  1.6647e-03  7.8339e-03  2.9360e+00  7.2939e-03  6.7932e-03  2.9793e-03  0:12:47 1748
   253  7.1485e-03  1.6544e-03  7.8562e-03  3.2233e+00  7.1185e-03  6.7419e-03  2.9595e-03  0:16:02 1747

  iter  continuity  x-velocity  y-velocity  z-velocity      energy           k       omega     time/iter
   254  6.9750e-03  1.6463e-03  7.8829e-03  3.5904e+00  6.9456e-03  6.6854e-03  2.9400e-03  0:12:49 1746
   255  6.6625e-03  1.6411e-03  7.9129e-03  4.0280e+00  6.6342e-03  6.6376e-03  2.9251e-03  0:16:04 1745
   256  6.2842e-03  1.6390e-03  7.9430e-03  4.4091e+00  6.2570e-03  6.6090e-03  2.9225e-03  0:12:51 1744
   257  5.7377e-03  1.6397e-03  7.9723e-03  4.7429e+00  5.7121e-03  6.5998e-03  2.9228e-03  0:16:05 1743
   258  5.1818e-03  1.6429e-03  7.9996e-03  5.0906e+00  5.1579e-03  6.5928e-03  2.9198e-03  0:12:52 1742
   259  4.8632e-03  1.6500e-03  8.0241e-03  5.4500e+00  4.8406e-03  6.5903e-03  2.9126e-03  0:16:05 1741
   260  5.0446e-03  1.6616e-03  8.0463e-03  5.7892e+00  5.0226e-03  6.5664e-03  2.9021e-03  0:12:52 1740
   261  5.6570e-03  1.6779e-03  8.0679e-03  6.1464e+00  5.6346e-03  6.5528e-03  2.8901e-03  0:16:05 1739
   262  6.2787e-03  1.6984e-03  8.0882e-03  6.4454e+00  6.2556e-03  6.5343e-03  2.8774e-03  0:12:51 1738
   263  6.8757e-03  1.7225e-03  8.1027e-03  6.7724e+00  6.8516e-03  6.5043e-03  2.8590e-03  0:10:17 1737
   264  7.4033e-03  1.7518e-03  8.1174e-03  7.0961e+00  7.3784e-03  6.4658e-03  2.8397e-03  0:14:00 1736

  iter  continuity  x-velocity  y-velocity  z-velocity      energy           k       omega     time/iter
   265  7.8504e-03  1.7949e-03  8.1285e-03  7.3724e+00  7.8247e-03  6.4241e-03  2.8202e-03  0:11:12 1735
   266  8.2228e-03  1.8354e-03  8.1312e-03  7.5706e+00  8.1964e-03  6.3913e-03  2.8018e-03  0:14:44 1734
   267  8.5321e-03  1.8723e-03  8.1483e-03  7.6897e+00  8.5051e-03  6.3492e-03  2.7832e-03  0:11:47 1733
   268  8.7855e-03  1.9138e-03  8.1669e-03  7.8376e+00  8.7580e-03  6.2966e-03  2.7740e-03  0:15:11 1732
   269  8.9955e-03  1.9551e-03  8.1924e-03  8.2589e+00  8.9676e-03  6.2434e-03  2.7644e-03  0:12:09 1731
   270  9.1799e-03  2.0011e-03  8.2222e-03  8.7647e+00  9.1518e-03  6.1859e-03  2.7559e-03  0:15:29 1730
   271  9.3475e-03  2.0489e-03  8.2546e-03  9.1503e+00  9.3191e-03  6.1340e-03  2.7572e-03  0:12:23 1729
   272  9.5006e-03  2.0961e-03  8.2894e-03  9.5204e+00  9.4720e-03  6.0800e-03  2.7588e-03  0:15:39 1728
   273  9.6489e-03  2.1428e-03  8.3291e-03  9.9677e+00  9.6200e-03  6.0329e-03  2.7647e-03  0:12:31 1727
   274  9.7885e-03  2.1780e-03  8.3768e-03  1.0425e+01  9.7594e-03  5.9869e-03  2.7828e-03  0:15:46 1726
   275  9.9195e-03  2.2058e-03  8.4338e-03  1.0835e+01  9.8902e-03  5.9468e-03  2.8011e-03  0:12:36 1725

  iter  continuity  x-velocity  y-velocity  z-velocity      energy           k       omega     time/iter
   276  1.0042e-02  2.2284e-03  8.5006e-03  1.1422e+01  1.0012e-02  5.9160e-03  2.8363e-03  0:15:49 1724
   277  1.0154e-02  2.2460e-03  8.5784e-03  1.2071e+01  1.0125e-02  5.8856e-03  2.8705e-03  0:12:39 1723
   278  1.0254e-02  2.2597e-03  8.6661e-03  1.1958e+01  1.0224e-02  5.8568e-03  2.9004e-03  0:15:51 1722
   279  1.0341e-02  2.2725e-03  8.7634e-03  1.2089e+01  1.0311e-02  5.8244e-03  2.9410e-03  0:12:41 1721
   280  1.0405e-02  2.2824e-03  8.8702e-03  1.2286e+01  1.0375e-02  5.7839e-03  2.9610e-03  0:15:52 1720
   281  1.0425e-02  2.2866e-03  8.9876e-03  1.2567e+01  1.0395e-02  5.7381e-03  2.9825e-03  0:12:41 1719
   282  1.0399e-02  2.2868e-03  9.1159e-03  1.2696e+01  1.0370e-02  5.6963e-03  2.9910e-03  0:15:52 1718
   283  1.0346e-02  2.2846e-03  9.2537e-03  1.2512e+01  1.0317e-02  5.6588e-03  2.9908e-03  0:12:41 1717
   284  1.0274e-02  2.2833e-03  9.3998e-03  1.2155e+01  1.0246e-02  5.6186e-03  2.9929e-03  0:15:52 1716
   285  1.0190e-02  2.2836e-03  9.5535e-03  1.1807e+01  1.0163e-02  5.5778e-03  2.9973e-03  0:12:41 1715
   286  1.0100e-02  2.2817e-03  9.7123e-03  1.1508e+01  1.0074e-02  5.5293e-03  3.0066e-03  0:15:51 1714

  iter  continuity  x-velocity  y-velocity  z-velocity      energy           k       omega     time/iter
   287  9.9788e-03  2.2877e-03  9.8733e-03  1.1320e+01  9.9529e-03  5.4861e-03  3.0062e-03  0:12:41 1713
   288  9.8816e-03  2.2964e-03  1.0033e-02  1.1275e+01  9.8561e-03  5.4444e-03  3.0181e-03  0:15:51 1712
   289  9.8084e-03  2.3062e-03  1.0186e-02  1.1331e+01  9.7834e-03  5.4035e-03  3.0498e-03  0:12:40 1711
   290  9.7802e-03  2.3185e-03  1.0331e-02  1.1398e+01  9.7556e-03  5.3600e-03  3.0623e-03  0:15:50 1710
   291  9.8012e-03  2.3361e-03  1.0467e-02  1.1482e+01  9.7770e-03  5.3164e-03  3.0611e-03  0:12:39 1709
   292  9.8262e-03  2.3588e-03  1.0592e-02  1.1582e+01  9.8024e-03  5.2709e-03  3.0609e-03  0:15:49 1708
   293  9.8645e-03  2.3866e-03  1.0707e-02  1.1771e+01  9.8409e-03  5.2195e-03  3.0786e-03  0:12:38 1707
   294  9.8993e-03  2.4160e-03  1.0806e-02  1.1996e+01  9.8759e-03  5.1689e-03  3.0875e-03  0:15:48 1706
   295  9.9427e-03  2.4537e-03  1.0887e-02  1.2222e+01  9.9194e-03  5.1232e-03  3.0883e-03  0:18:19 1705
   296  1.0011e-02  2.4899e-03  1.0952e-02  1.2460e+01  9.9875e-03  5.0770e-03  3.0932e-03  0:14:38 1704
   297  1.0074e-02  2.5273e-03  1.1001e-02  1.2740e+01  1.0051e-02  5.0226e-03  3.1016e-03  0:17:23 1703

  iter  continuity  x-velocity  y-velocity  z-velocity      energy           k       omega     time/iter
   298  1.0143e-02  2.5739e-03  1.1038e-02  1.3101e+01  1.0120e-02  4.9691e-03  3.1101e-03  0:13:54 1702
   299  1.0254e-02  2.6213e-03  1.1064e-02  1.3458e+01  1.0231e-02  4.9153e-03  3.0815e-03  0:16:47 1701
   300  1.0388e-02  2.6670e-03  1.1075e-02  1.3773e+01  1.0366e-02  4.8585e-03  3.0330e-03  0:13:25 1700
   301  1.0486e-02  2.7133e-03  1.1076e-02  1.4051e+01  1.0465e-02  4.8007e-03  3.0076e-03  0:16:23 1699
   302  1.0546e-02  2.7599e-03  1.1067e-02  1.4280e+01  1.0525e-02  4.7388e-03  2.9792e-03  0:13:06 1698
   303  1.0610e-02  2.8066e-03  1.1053e-02  1.4462e+01  1.0589e-02  4.6871e-03  2.9664e-03  0:16:08 1697
   304  1.0713e-02  2.8553e-03  1.1032e-02  1.4638e+01  1.0693e-02  4.6411e-03  2.9920e-03  0:12:54 1696
   305  1.0844e-02  2.9054e-03  1.1006e-02  1.4755e+01  1.0825e-02  4.5930e-03  2.9867e-03  0:10:19 1695
   306  1.0940e-02  2.9556e-03  1.0976e-02  1.4887e+01  1.0921e-02  4.5576e-03  2.9553e-03  0:13:54 1694
   307  1.1024e-02  3.0041e-03  1.0941e-02  1.5163e+01  1.1007e-02  4.5236e-03  2.9588e-03  0:11:06 1693
   308  1.1096e-02  3.0506e-03  1.0903e-02  1.5563e+01  1.1079e-02  4.4932e-03  2.9442e-03  0:14:31 1692

  iter  continuity  x-velocity  y-velocity  z-velocity      energy           k       omega     time/iter
   309  1.1138e-02  3.0938e-03  1.0858e-02  1.6081e+01  1.1122e-02  4.4742e-03  2.9288e-03  0:11:37 1691
   310  1.1148e-02  3.1337e-03  1.0815e-02  1.6648e+01  1.1133e-02  4.4677e-03  2.9338e-03  0:14:55 1690
   311  1.1126e-02  3.1696e-03  1.0774e-02  1.7163e+01  1.1111e-02  4.4723e-03  2.9262e-03  0:11:56 1689
   312  1.1076e-02  3.2022e-03  1.0736e-02  1.7588e+01  1.1062e-02  4.4826e-03  2.9078e-03  0:15:10 1688
   313  1.1004e-02  3.2312e-03  1.0703e-02  1.8044e+01  1.0990e-02  4.4951e-03  2.8708e-03  0:12:07 1687
   314  1.0915e-02  3.2564e-03  1.0675e-02  1.8431e+01  1.0900e-02  4.5095e-03  2.8396e-03  0:15:19 1686
   315  1.0812e-02  3.2787e-03  1.0650e-02  1.8655e+01  1.0797e-02  4.5276e-03  2.8284e-03  0:12:15 1685
   316  1.0702e-02  3.2980e-03  1.0630e-02  1.8859e+01  1.0688e-02  4.5500e-03  2.8292e-03  0:15:24 1684
   317  1.0588e-02  3.3135e-03  1.0617e-02  1.9068e+01  1.0574e-02  4.5610e-03  2.8218e-03  0:12:19 1683
   318  1.0481e-02  3.3257e-03  1.0613e-02  1.9105e+01  1.0467e-02  4.5837e-03  2.8072e-03  0:15:27 1682
   319  1.0381e-02  3.3347e-03  1.0616e-02  1.9284e+01  1.0367e-02  4.6100e-03  2.7814e-03  0:12:21 1681

  iter  continuity  x-velocity  y-velocity  z-velocity      energy           k       omega     time/iter
   320  1.0287e-02  3.3404e-03  1.0630e-02  1.9898e+01  1.0273e-02  4.6263e-03  2.7609e-03  0:15:29 1680
   321  1.0201e-02  3.3433e-03  1.0653e-02  2.0991e+01  1.0187e-02  4.6431e-03  2.7384e-03  0:12:22 1679
   322  1.0123e-02  3.3442e-03  1.0686e-02  2.2254e+01  1.0109e-02  4.6768e-03  2.7084e-03  0:15:29 1678
   323  1.0056e-02  3.3431e-03  1.0729e-02  2.3743e+01  1.0042e-02  4.7035e-03  2.6897e-03  0:12:23 1677
   324  9.9944e-03  3.3386e-03  1.0784e-02  2.5167e+01  9.9810e-03  4.7321e-03  2.6385e-03  0:15:29 1676
   325  9.9391e-03  3.3315e-03  1.0849e-02  2.6285e+01  9.9260e-03  4.7660e-03  2.5892e-03  0:12:23 1675
   326  9.8850e-03  3.3241e-03  1.0924e-02  2.7053e+01  9.8721e-03  4.8067e-03  2.5741e-03  0:15:29 1674
   327  9.8340e-03  3.3156e-03  1.1010e-02  2.7482e+01  9.8214e-03  4.8311e-03  2.5581e-03  0:12:23 1673
   328  9.7851e-03  3.3060e-03  1.1103e-02  2.7616e+01  9.7727e-03  4.8452e-03  2.5361e-03  0:15:28 1672
   329  9.7362e-03  3.2942e-03  1.1200e-02  2.7594e+01  9.7241e-03  4.8618e-03  2.5262e-03  0:12:22 1671
   330  9.6882e-03  3.2795e-03  1.1299e-02  2.7445e+01  9.6763e-03  4.8720e-03  2.5097e-03  0:15:27 1670

  iter  continuity  x-velocity  y-velocity  z-velocity      energy           k       omega     time/iter
   331  9.6378e-03  3.2618e-03  1.1394e-02  2.7264e+01  9.6262e-03  4.8723e-03  2.4855e-03  0:12:21 1669
   332  9.5926e-03  3.2412e-03  1.1488e-02  2.7056e+01  9.5813e-03  4.8744e-03  2.4606e-03  0:15:26 1668
   333  9.5490e-03  3.2177e-03  1.1581e-02  2.6619e+01  9.5379e-03  4.8849e-03  2.4409e-03  0:12:21 1667
   334  9.5012e-03  3.1932e-03  1.1670e-02  2.5955e+01  9.4903e-03  4.8934e-03  2.4132e-03  0:15:25 1666
   335  9.4517e-03  3.1682e-03  1.1755e-02  2.5196e+01  9.4411e-03  4.8994e-03  2.3968e-03  0:12:20 1665
   336  9.4014e-03  3.1428e-03  1.1833e-02  2.4386e+01  9.3910e-03  4.9025e-03  2.3672e-03  0:15:24 1664
   337  9.3446e-03  3.1177e-03  1.1907e-02  2.3494e+01  9.3344e-03  4.9171e-03  2.3498e-03  0:12:19 1663
   338  9.2754e-03  3.0931e-03  1.1979e-02  2.2558e+01  9.2654e-03  4.9300e-03  2.3233e-03  0:15:23 1662
   339  9.1950e-03  3.0695e-03  1.2050e-02  2.1596e+01  9.1852e-03  4.9476e-03  2.3056e-03  0:12:18 1661
   340  9.1036e-03  3.0464e-03  1.2120e-02  2.0644e+01  9.0940e-03  4.9724e-03  2.2892e-03  0:15:22 1660
   341  9.0071e-03  3.0240e-03  1.2191e-02  1.9713e+01  8.9977e-03  4.9932e-03  2.2712e-03  0:12:17 1659

  iter  continuity  x-velocity  y-velocity  z-velocity      energy           k       omega     time/iter
   342  8.9121e-03  3.0029e-03  1.2263e-02  1.8776e+01  8.9029e-03  5.0203e-03  2.2475e-03  0:15:21 1658
   343  8.8149e-03  2.9836e-03  1.2335e-02  1.7967e+01  8.8060e-03  5.0367e-03  2.2185e-03  0:12:16 1657
   344  8.7029e-03  2.9664e-03  1.2413e-02  1.7185e+01  8.6942e-03  5.0535e-03  2.2010e-03  0:15:20 1656
   345  8.5646e-03  2.9512e-03  1.2495e-02  1.6517e+01  8.5561e-03  5.0720e-03  2.1726e-03  0:12:16 1655
   346  8.4173e-03  2.9380e-03  1.2579e-02  1.5981e+01  8.4089e-03  5.0846e-03  2.1452e-03  0:15:19 1654
   347  8.2563e-03  2.9251e-03  1.2661e-02  1.5405e+01  8.2481e-03  5.0939e-03  2.1275e-03  0:12:15 1653
   348  8.0830e-03  2.9129e-03  1.2743e-02  1.4662e+01  8.0749e-03  5.1016e-03  2.1228e-03  0:15:18 1652
   349  7.8977e-03  2.9020e-03  1.2818e-02  1.3829e+01  7.8896e-03  5.0997e-03  2.1087e-03  0:12:14 1651
   350  7.7006e-03  2.8919e-03  1.2887e-02  1.2969e+01  7.6926e-03  5.0989e-03  2.0967e-03  0:15:17 1650
   351  7.4905e-03  2.8825e-03  1.2954e-02  1.2090e+01  7.4824e-03  5.0991e-03  2.0795e-03  0:12:13 1649
   352  7.2702e-03  2.8745e-03  1.3018e-02  1.1267e+01  7.2621e-03  5.0904e-03  2.0616e-03  0:15:16 1648

  iter  continuity  x-velocity  y-velocity  z-velocity      energy           k       omega     time/iter
   353  7.0497e-03  2.8679e-03  1.3080e-02  1.0515e+01  7.0415e-03  5.0819e-03  2.0501e-03  0:12:12 1647
   354  6.8267e-03  2.8620e-03  1.3141e-02  9.9898e+00  6.8185e-03  5.0798e-03  2.0397e-03  0:15:14 1646
   355  6.6076e-03  2.8561e-03  1.3200e-02  9.7741e+00  6.5993e-03  5.0714e-03  2.0299e-03  0:12:11 1645
   356  6.3926e-03  2.8497e-03  1.3259e-02  9.8517e+00  6.3843e-03  5.0691e-03  2.0149e-03  0:15:13 1644
   357  6.1778e-03  2.8427e-03  1.3316e-02  1.0131e+01  6.1695e-03  5.0868e-03  2.0003e-03  0:12:10 1643
   358  5.9682e-03  2.8352e-03  1.3371e-02  1.0545e+01  5.9598e-03  5.1081e-03  1.9871e-03  0:15:12 1642
   359  5.7635e-03  2.8273e-03  1.3424e-02  1.1031e+01  5.7552e-03  5.1225e-03  1.9726e-03  0:12:09 1641
   360  5.5692e-03  2.8190e-03  1.3477e-02  1.1583e+01  5.5609e-03  5.1415e-03  1.9625e-03  0:15:11 1640
   361  5.3865e-03  2.8098e-03  1.3529e-02  1.2176e+01  5.3783e-03  5.1546e-03  1.9548e-03  0:12:08 1639
   362  5.2039e-03  2.7996e-03  1.3583e-02  1.2684e+01  5.1958e-03  5.1637e-03  1.9403e-03  0:15:10 1638
   363  5.0157e-03  2.7894e-03  1.3635e-02  1.3196e+01  5.0077e-03  5.1721e-03  1.9285e-03  0:12:08 1637

  iter  continuity  x-velocity  y-velocity  z-velocity      energy           k       omega     time/iter
   364  4.8255e-03  2.7791e-03  1.3689e-02  1.3697e+01  4.8175e-03  5.1759e-03  1.9238e-03  0:15:09 1636
   365  4.6358e-03  2.7690e-03  1.3745e-02  1.4189e+01  4.6278e-03  5.1782e-03  1.9246e-03  0:12:07 1635
   366  4.4506e-03  2.7594e-03  1.3804e-02  1.4649e+01  4.4427e-03  5.1757e-03  1.9228e-03  0:15:08 1634
   367  4.2693e-03  2.7499e-03  1.3868e-02  1.5067e+01  4.2615e-03  5.1697e-03  1.9169e-03  0:12:06 1633
   368  4.0991e-03  2.7399e-03  1.3939e-02  1.5405e+01  4.0914e-03  5.1689e-03  1.9093e-03  0:15:07 1632
   369  3.9319e-03  2.7309e-03  1.4014e-02  1.5704e+01  3.9242e-03  5.1813e-03  1.9055e-03  0:12:05 1631
   370  3.7638e-03  2.7235e-03  1.4093e-02  1.5854e+01  3.7562e-03  5.1934e-03  1.8975e-03  0:15:06 1630
   371  3.6063e-03  2.7181e-03  1.4179e-02  1.6000e+01  3.5987e-03  5.2010e-03  1.8848e-03  0:12:04 1629
   372  3.4622e-03  2.7143e-03  1.4270e-02  1.6009e+01  3.4548e-03  5.2140e-03  1.8779e-03  0:15:04 1628
   373  3.3265e-03  2.7127e-03  1.4364e-02  1.5971e+01  3.3192e-03  5.2268e-03  1.8747e-03  0:12:03 1627
   374  3.2062e-03  2.7130e-03  1.4465e-02  1.5912e+01  3.1989e-03  5.2397e-03  1.8754e-03  0:15:03 1626

  iter  continuity  x-velocity  y-velocity  z-velocity      energy           k       omega     time/iter
   375  3.0963e-03  2.7144e-03  1.4574e-02  1.5818e+01  3.0892e-03  5.2535e-03  1.8682e-03  0:12:02 1625
   376  2.9912e-03  2.7166e-03  1.4691e-02  1.5706e+01  2.9841e-03  5.2577e-03  1.8634e-03  0:09:37 1624
   377  2.8944e-03  2.7200e-03  1.4817e-02  1.5575e+01  2.8874e-03  5.2520e-03  1.8547e-03  0:13:06 1623
   378  2.8101e-03  2.7243e-03  1.4954e-02  1.5434e+01  2.8031e-03  5.2474e-03  1.8463e-03  0:10:29 1622
   379  2.7370e-03  2.7296e-03  1.5102e-02  1.5304e+01  2.7300e-03  5.2590e-03  1.8350e-03  0:13:47 1621
   380  2.6775e-03  2.7361e-03  1.5258e-02  1.5179e+01  2.6704e-03  5.2721e-03  1.8244e-03  0:11:01 1620
   381  2.6260e-03  2.7438e-03  1.5423e-02  1.5054e+01  2.6188e-03  5.2787e-03  1.8188e-03  0:14:12 1619
   382  2.5839e-03  2.7529e-03  1.5595e-02  1.4952e+01  2.5765e-03  5.2754e-03  1.8134e-03  0:11:21 1618
   383  2.5362e-03  2.7629e-03  1.5775e-02  1.4864e+01  2.5285e-03  5.2837e-03  1.8067e-03  0:14:28 1617
   384  2.5045e-03  2.7746e-03  1.5959e-02  1.4784e+01  2.4963e-03  5.2877e-03  1.8020e-03  0:11:34 1616
   385  2.4854e-03  2.7883e-03  1.6149e-02  1.4682e+01  2.4768e-03  5.2920e-03  1.8005e-03  0:14:38 1615

  iter  continuity  x-velocity  y-velocity  z-velocity      energy           k       omega     time/iter
   386  2.4823e-03  2.8045e-03  1.6344e-02  1.4597e+01  2.4731e-03  5.3141e-03  1.7935e-03  0:11:42 1614
   387  2.4949e-03  2.8232e-03  1.6545e-02  1.4522e+01  2.4853e-03  5.3274e-03  1.7864e-03  0:14:44 1613
   388  2.5229e-03  2.8441e-03  1.6749e-02  1.4454e+01  2.5128e-03  5.3394e-03  1.7808e-03  0:11:47 1612
   389  2.5653e-03  2.8673e-03  1.6954e-02  1.4391e+01  2.5546e-03  5.3614e-03  1.7754e-03  0:14:47 1611
   390  2.6229e-03  2.8924e-03  1.7157e-02  1.4321e+01  2.6117e-03  5.3811e-03  1.7702e-03  0:11:49 1610
   391  2.6940e-03  2.9191e-03  1.7356e-02  1.4219e+01  2.6824e-03  5.4169e-03  1.7700e-03  0:09:27 1609
   392  2.7888e-03  2.9473e-03  1.7555e-02  1.4126e+01  2.7770e-03  5.4655e-03  1.7695e-03  0:12:55 1608
   393  2.9025e-03  2.9765e-03  1.7748e-02  1.4021e+01  2.8907e-03  5.5137e-03  1.7740e-03  0:10:20 1607
   394  3.0292e-03  3.0065e-03  1.7938e-02  1.3930e+01  3.0173e-03  5.5527e-03  1.7751e-03  0:13:37 1606
   395  3.1608e-03  3.0369e-03  1.8119e-02  1.3829e+01  3.1489e-03  5.5933e-03  1.7787e-03  0:10:53 1605
   396  3.3059e-03  3.0677e-03  1.8294e-02  1.3726e+01  3.2941e-03  5.6393e-03  1.7829e-03  0:14:03 1604

  iter  continuity  x-velocity  y-velocity  z-velocity      energy           k       omega     time/iter
   397  3.4580e-03  3.0990e-03  1.8461e-02  1.3601e+01  3.4463e-03  5.6619e-03  1.7848e-03  0:11:14 1603
   398  3.6141e-03  3.1303e-03  1.8622e-02  1.3463e+01  3.6026e-03  5.6885e-03  1.7895e-03  0:14:19 1602
   399  3.7769e-03  3.1612e-03  1.8774e-02  1.3300e+01  3.7657e-03  5.6964e-03  1.7904e-03  0:11:27 1601
   400  3.9413e-03  3.1918e-03  1.8916e-02  1.3175e+01  3.9303e-03  5.6905e-03  1.7931e-03  0:14:29 1600
   401  4.0968e-03  3.2221e-03  1.9048e-02  1.3072e+01  4.0861e-03  5.6907e-03  1.8006e-03  0:16:55 1599
   402  4.2421e-03  3.2520e-03  1.9171e-02  1.2962e+01  4.2317e-03  5.6806e-03  1.8067e-03  0:13:31 1598
   403  4.3744e-03  3.2813e-03  1.9284e-02  1.2793e+01  4.3642e-03  5.6922e-03  1.8159e-03  0:16:08 1597
   404  4.4849e-03  3.3091e-03  1.9388e-02  1.2602e+01  4.4749e-03  5.7265e-03  1.8229e-03  0:12:54 1596
   405  4.5871e-03  3.3364e-03  1.9484e-02  1.2437e+01  4.5772e-03  5.7403e-03  1.8304e-03  0:15:38 1595
   406  4.6842e-03  3.3632e-03  1.9573e-02  1.2332e+01  4.6745e-03  5.7408e-03  1.8452e-03  0:12:30 1594
   407  4.7792e-03  3.3900e-03  1.9654e-02  1.2159e+01  4.7696e-03  5.7449e-03  1.8602e-03  0:15:18 1593

  iter  continuity  x-velocity  y-velocity  z-velocity      energy           k       omega     time/iter
   408  4.8646e-03  3.4165e-03  1.9730e-02  1.2038e+01  4.8551e-03  5.7471e-03  1.8712e-03  0:12:14 1592
   409  4.9340e-03  3.4430e-03  1.9799e-02  1.1911e+01  4.9246e-03  5.7439e-03  1.8858e-03  0:15:05 1591
   410  4.9738e-03  3.4705e-03  1.9848e-02  1.1780e+01  4.9643e-03  5.7334e-03  1.9033e-03  0:12:04 1590
   411  5.0003e-03  3.5001e-03  1.9895e-02  1.1646e+01  4.9908e-03  5.7357e-03  1.9237e-03  0:14:56 1589
   412  5.0496e-03  3.5332e-03  1.9942e-02  1.1550e+01  5.0402e-03  5.7535e-03  1.9412e-03  0:11:57 1588
   413  4.9934e-03  3.5606e-03  1.9979e-02  1.1398e+01  4.9837e-03  5.7600e-03  1.9573e-03  0:14:50 1587
   414  4.9341e-03  3.5908e-03  2.0015e-02  1.1294e+01  4.9240e-03  5.7764e-03  1.9715e-03  0:11:52 1586
   415  4.8587e-03  3.6229e-03  2.0049e-02  1.1165e+01  4.8483e-03  5.8131e-03  1.9901e-03  0:14:46 1585
   416  4.7935e-03  3.6567e-03  2.0083e-02  1.1087e+01  4.7828e-03  5.8513e-03  2.0152e-03  0:11:48 1584
   417  4.7412e-03  3.6919e-03  2.0116e-02  1.0985e+01  4.7304e-03  5.8657e-03  2.0414e-03  0:14:43 1583
   418  4.6786e-03  3.7291e-03  2.0150e-02  1.0871e+01  4.6676e-03  5.8407e-03  2.0608e-03  0:11:46 1582

  iter  continuity  x-velocity  y-velocity  z-velocity      energy           k       omega     time/iter
   419  4.6143e-03  3.7671e-03  2.0183e-02  1.0782e+01  4.6031e-03  5.8158e-03  2.0839e-03  0:14:41 1581
   420  4.5526e-03  3.8052e-03  2.0215e-02  1.0647e+01  4.5412e-03  5.7958e-03  2.1051e-03  0:11:44 1580
   421  4.4969e-03  3.8434e-03  2.0246e-02  1.0430e+01  4.4853e-03  5.7633e-03  2.1213e-03  0:14:39 1579
   422  4.4520e-03  3.8810e-03  2.0279e-02  1.0167e+01  4.4402e-03  5.7402e-03  2.1419e-03  0:11:42 1578
   423  4.4160e-03  3.9174e-03  2.0313e-02  9.9652e+00  4.4041e-03  5.7161e-03  2.1585e-03  0:14:37 1577
   424  4.3747e-03  3.9510e-03  2.0349e-02  9.7936e+00  4.3625e-03  5.7185e-03  2.1734e-03  0:11:41 1576
   425  4.3248e-03  3.9828e-03  2.0388e-02  9.6716e+00  4.3124e-03  5.7181e-03  2.1930e-03  0:14:36 1575
   426  4.2797e-03  4.0116e-03  2.0432e-02  9.5463e+00  4.2670e-03  5.7080e-03  2.2048e-03  0:11:40 1574
   427  4.2319e-03  4.0378e-03  2.0483e-02  9.5025e+00  4.2189e-03  5.6757e-03  2.2172e-03  0:14:34 1573
   428  4.1878e-03  4.0617e-03  2.0541e-02  9.4430e+00  4.1746e-03  5.6618e-03  2.2334e-03  0:11:39 1572
   429  4.1591e-03  4.0834e-03  2.0606e-02  9.3477e+00  4.1457e-03  5.6524e-03  2.2489e-03  0:14:33 1571

  iter  continuity  x-velocity  y-velocity  z-velocity      energy           k       omega     time/iter
   430  4.1330e-03  4.1032e-03  2.0676e-02  9.2070e+00  4.1194e-03  5.6426e-03  2.2663e-03  0:11:38 1570
   431  4.1078e-03  4.1196e-03  2.0751e-02  9.0336e+00  4.0941e-03  5.6282e-03  2.2776e-03  0:09:18 1569
   432  4.1071e-03  4.1326e-03  2.0831e-02  8.8194e+00  4.0934e-03  5.6220e-03  2.2924e-03  0:12:40 1568
   433  4.1300e-03  4.1426e-03  2.0913e-02  8.6783e+00  4.1163e-03  5.6079e-03  2.3037e-03  0:15:21 1567
   434  4.1662e-03  4.1497e-03  2.0997e-02  8.5835e+00  4.1526e-03  5.5799e-03  2.3175e-03  0:12:16 1566
   435  4.1942e-03  4.1540e-03  2.1085e-02  8.4933e+00  4.1807e-03  5.5451e-03  2.3297e-03  0:09:49 1565
   436  4.2021e-03  4.1555e-03  2.1175e-02  8.4473e+00  4.1888e-03  5.5398e-03  2.3468e-03  0:13:03 1564
   437  4.2153e-03  4.1536e-03  2.1264e-02  8.4647e+00  4.2021e-03  5.5570e-03  2.3636e-03  0:10:26 1563
   438  4.2563e-03  4.1487e-03  2.1354e-02  8.3932e+00  4.2434e-03  5.5626e-03  2.3751e-03  0:13:33 1562
   439  4.3174e-03  4.1408e-03  2.1445e-02  8.2566e+00  4.3048e-03  5.5487e-03  2.3838e-03  0:16:02 1561
   440  4.3867e-03  4.1298e-03  2.1537e-02  8.2104e+00  4.3745e-03  5.5266e-03  2.3968e-03  0:18:01 1560

  iter  continuity  x-velocity  y-velocity  z-velocity      energy           k       omega     time/iter
   441  4.4630e-03  4.1157e-03  2.1628e-02  8.3243e+00  4.4512e-03  5.4998e-03  2.4072e-03  0:14:24 1559
   442  4.5573e-03  4.1008e-03  2.1716e-02  8.4454e+00  4.5458e-03  5.4873e-03  2.4114e-03  0:16:43 1558
   443  4.6638e-03  4.0843e-03  2.1800e-02  8.5540e+00  4.6527e-03  5.4720e-03  2.4138e-03  0:13:22 1557
   444  4.7306e-03  4.0685e-03  2.1879e-02  8.6528e+00  4.7198e-03  5.4425e-03  2.4193e-03  0:15:52 1556
   445  4.7806e-03  4.0525e-03  2.1954e-02  8.7365e+00  4.7700e-03  5.3999e-03  2.4242e-03  0:12:41 1555
   446  4.8298e-03  4.0373e-03  2.2024e-02  8.8572e+00  4.8194e-03  5.3611e-03  2.4264e-03  0:15:19 1554
   447  4.8759e-03  4.0238e-03  2.2090e-02  9.0195e+00  4.8657e-03  5.3618e-03  2.4284e-03  0:12:15 1553
   448  4.9083e-03  4.0125e-03  2.2151e-02  9.2556e+00  4.8983e-03  5.3687e-03  2.4292e-03  0:14:58 1552
   449  4.9200e-03  3.9999e-03  2.2207e-02  9.1945e+00  4.9101e-03  5.3692e-03  2.4343e-03  0:11:58 1551
   450  4.9089e-03  3.9849e-03  2.2253e-02  9.4266e+00  4.8992e-03  5.3380e-03  2.4355e-03  0:14:44 1550
   451  4.9102e-03  3.9700e-03  2.2296e-02  9.6972e+00  4.9006e-03  5.2988e-03  2.4336e-03  0:11:47 1549

  iter  continuity  x-velocity  y-velocity  z-velocity      energy           k       omega     time/iter
   452  4.9127e-03  3.9538e-03  2.2334e-02  9.7315e+00  4.9033e-03  5.2615e-03  2.4352e-03  0:14:35 1548
   453  4.9055e-03  3.9357e-03  2.2367e-02  1.0026e+01  4.8962e-03  5.2291e-03  2.4349e-03  0:11:39 1547
   454  4.8908e-03  3.9160e-03  2.2396e-02  1.0064e+01  4.8815e-03  5.2086e-03  2.4331e-03  0:14:28 1546
   455  4.8695e-03  3.8962e-03  2.2421e-02  1.0141e+01  4.8602e-03  5.1796e-03  2.4285e-03  0:11:34 1545
   456  4.8507e-03  3.8772e-03  2.2441e-02  1.0175e+01  4.8414e-03  5.1602e-03  2.4280e-03  0:09:15 1544
   457  4.8408e-03  3.8588e-03  2.2459e-02  1.0167e+01  4.8314e-03  5.1429e-03  2.4261e-03  0:12:32 1543
   458  4.8562e-03  3.8412e-03  2.2474e-02  1.0229e+01  4.8468e-03  5.1249e-03  2.4208e-03  0:15:10 1542
   459  4.8585e-03  3.8254e-03  2.2485e-02  1.0115e+01  4.8491e-03  5.0899e-03  2.4131e-03  0:12:07 1541
   460  4.8390e-03  3.8110e-03  2.2492e-02  1.0075e+01  4.8295e-03  5.0509e-03  2.4046e-03  0:14:50 1540
   461  4.8047e-03  3.7976e-03  2.2495e-02  1.0136e+01  4.7952e-03  5.0158e-03  2.4032e-03  0:11:51 1539
   462  4.7736e-03  3.7848e-03  2.2490e-02  1.0096e+01  4.7640e-03  4.9989e-03  2.4009e-03  0:09:29 1538

  iter  continuity  x-velocity  y-velocity  z-velocity      energy           k       omega     time/iter
   463  4.7493e-03  3.7732e-03  2.2484e-02  1.0028e+01  4.7397e-03  4.9721e-03  2.3945e-03  0:12:42 1537
   464  4.7339e-03  3.7638e-03  2.2474e-02  9.9365e+00  4.7242e-03  4.9312e-03  2.3893e-03  0:10:09 1536
   465  4.7146e-03  3.7551e-03  2.2460e-02  9.8591e+00  4.7049e-03  4.8932e-03  2.3817e-03  0:13:14 1535
   466  4.6904e-03  3.7467e-03  2.2441e-02  9.7978e+00  4.6807e-03  4.8631e-03  2.3726e-03  0:10:35 1534
   467  4.6753e-03  3.7395e-03  2.2417e-02  9.7382e+00  4.6656e-03  4.8368e-03  2.3699e-03  0:13:34 1533
   468  4.6619e-03  3.7340e-03  2.2388e-02  9.6848e+00  4.6521e-03  4.8144e-03  2.3635e-03  0:15:57 1532
   469  4.6439e-03  3.7294e-03  2.2358e-02  9.6854e+00  4.6340e-03  4.7848e-03  2.3634e-03  0:12:45 1531
   470  4.6300e-03  3.7237e-03  2.2324e-02  9.5535e+00  4.6200e-03  4.7524e-03  2.3603e-03  0:10:12 1530
   471  4.6127e-03  3.7177e-03  2.2287e-02  9.5249e+00  4.6026e-03  4.7180e-03  2.3576e-03  0:13:15 1529
   472  4.5986e-03  3.7125e-03  2.2250e-02  9.6009e+00  4.5883e-03  4.6805e-03  2.3562e-03  0:10:36 1528
   473  4.5868e-03  3.7090e-03  2.2213e-02  9.5506e+00  4.5764e-03  4.6505e-03  2.3489e-03  0:13:34 1527

  iter  continuity  x-velocity  y-velocity  z-velocity      energy           k       omega     time/iter
   474  4.5685e-03  3.7065e-03  2.2176e-02  9.3712e+00  4.5579e-03  4.6290e-03  2.3376e-03  0:10:50 1526
   475  4.5452e-03  3.7053e-03  2.2140e-02  9.2868e+00  4.5345e-03  4.6138e-03  2.3310e-03  0:13:45 1525
   476  4.5255e-03  3.7041e-03  2.2106e-02  9.3246e+00  4.5147e-03  4.5923e-03  2.3232e-03  0:11:00 1524
   477  4.4849e-03  3.7018e-03  2.2073e-02  9.2676e+00  4.4739e-03  4.5698e-03  2.3160e-03  0:13:52 1523
   478  4.4588e-03  3.6995e-03  2.2043e-02  9.2906e+00  4.4477e-03  4.5411e-03  2.3050e-03  0:11:05 1522
   479  4.4399e-03  3.6967e-03  2.2014e-02  9.1963e+00  4.4287e-03  4.5143e-03  2.2947e-03  0:13:56 1521
   480  4.4171e-03  3.6936e-03  2.1989e-02  9.1435e+00  4.4058e-03  4.4949e-03  2.2850e-03  0:11:08 1520
   481  4.3867e-03  3.6900e-03  2.1967e-02  9.0900e+00  4.3752e-03  4.4819e-03  2.2726e-03  0:13:58 1519
   482  4.3469e-03  3.6850e-03  2.1944e-02  9.0200e+00  4.3353e-03  4.4723e-03  2.2615e-03  0:11:10 1518
   483  4.3197e-03  3.6791e-03  2.1921e-02  8.9523e+00  4.3078e-03  4.4615e-03  2.2476e-03  0:13:59 1517
   484  4.2964e-03  3.6736e-03  2.1897e-02  9.0064e+00  4.2843e-03  4.4442e-03  2.2400e-03  0:11:11 1516

  iter  continuity  x-velocity  y-velocity  z-velocity      energy           k       omega     time/iter
   485  4.2681e-03  3.6670e-03  2.1872e-02  9.0549e+00  4.2558e-03  4.4241e-03  2.2257e-03  0:13:59 1515
   486  4.2437e-03  3.6595e-03  2.1846e-02  9.0102e+00  4.2312e-03  4.4040e-03  2.2123e-03  0:11:11 1514
   487  4.2170e-03  3.6513e-03  2.1821e-02  8.9915e+00  4.2042e-03  4.3826e-03  2.2041e-03  0:08:56 1513
   488  4.1751e-03  3.6422e-03  2.1795e-02  8.9364e+00  4.1621e-03  4.3558e-03  2.1922e-03  0:12:11 1512
   489  4.1220e-03  3.6315e-03  2.1768e-02  8.9031e+00  4.1089e-03  4.3257e-03  2.1805e-03  0:09:45 1511
   490  4.0790e-03  3.6191e-03  2.1741e-02  8.8595e+00  4.0658e-03  4.3011e-03  2.1703e-03  0:12:49 1510
   491  4.0412e-03  3.6051e-03  2.1713e-02  8.7436e+00  4.0279e-03  4.2795e-03  2.1578e-03  0:10:15 1509
   492  4.0167e-03  3.5896e-03  2.1684e-02  8.6549e+00  4.0032e-03  4.2562e-03  2.1490e-03  0:13:13 1508
   493  3.9891e-03  3.5717e-03  2.1653e-02  8.5592e+00  3.9755e-03  4.2308e-03  2.1379e-03  0:10:34 1507
   494  3.9728e-03  3.5519e-03  2.1621e-02  8.5999e+00  3.9590e-03  4.2063e-03  2.1250e-03  0:13:28 1506
   495  3.9582e-03  3.5320e-03  2.1587e-02  8.4900e+00  3.9444e-03  4.1856e-03  2.1158e-03  0:10:46 1505

  iter  continuity  x-velocity  y-velocity  z-velocity      energy           k       omega     time/iter
   496  3.9414e-03  3.5115e-03  2.1551e-02  8.4054e+00  3.9275e-03  4.1655e-03  2.1029e-03  0:13:37 1504
   497  3.9178e-03  3.4907e-03  2.1512e-02  8.3979e+00  3.9038e-03  4.1459e-03  2.0938e-03  0:15:54 1503
   498  3.8665e-03  3.4702e-03  2.1470e-02  8.3189e+00  3.8524e-03  4.1290e-03  2.0862e-03  0:12:43 1502
   499  3.7983e-03  3.4492e-03  2.1425e-02  8.1961e+00  3.7842e-03  4.1137e-03  2.0762e-03  0:15:10 1501
   500  3.7238e-03  3.4286e-03  2.1376e-02  8.1772e+00  3.7097e-03  4.1000e-03  2.0674e-03  0:12:08 1500
   501  3.6626e-03  3.4084e-03  2.1326e-02  8.0765e+00  3.6484e-03  4.0871e-03  2.0606e-03  0:14:41 1499
   502  3.6003e-03  3.3885e-03  2.1273e-02  7.9725e+00  3.5861e-03  4.0694e-03  2.0554e-03  0:11:45 1498
   503  3.5394e-03  3.3682e-03  2.1218e-02  7.8531e+00  3.5251e-03  4.0527e-03  2.0478e-03  0:14:23 1497
   504  3.4858e-03  3.3476e-03  2.1162e-02  7.7649e+00  3.4716e-03  4.0346e-03  2.0400e-03  0:11:30 1496
   505  3.4518e-03  3.3256e-03  2.1104e-02  7.5608e+00  3.4375e-03  4.0155e-03  2.0323e-03  0:14:10 1495
   506  3.4313e-03  3.3049e-03  2.1046e-02  7.3937e+00  3.4169e-03  3.9958e-03  2.0245e-03  0:11:20 1494

  iter  continuity  x-velocity  y-velocity  z-velocity      energy           k       omega     time/iter
   507  3.4155e-03  3.2853e-03  2.0987e-02  7.1930e+00  3.4012e-03  3.9756e-03  2.0162e-03  0:14:02 1493
   508  3.4073e-03  3.2662e-03  2.0927e-02  6.9719e+00  3.3929e-03  3.9559e-03  2.0085e-03  0:11:13 1492
   509  3.3948e-03  3.2477e-03  2.0867e-02  6.9444e+00  3.3805e-03  3.9353e-03  1.9999e-03  0:13:56 1491
   510  3.3959e-03  3.2309e-03  2.0806e-02  6.8307e+00  3.3816e-03  3.9205e-03  1.9911e-03  0:11:09 1490
   511  3.4022e-03  3.2150e-03  2.0745e-02  6.7446e+00  3.3879e-03  3.9124e-03  1.9838e-03  0:13:52 1489
   512  3.4017e-03  3.2002e-03  2.0685e-02  6.7300e+00  3.3873e-03  3.9019e-03  1.9766e-03  0:11:05 1488
   513  3.3919e-03  3.1862e-03  2.0626e-02  6.6714e+00  3.3776e-03  3.8869e-03  1.9719e-03  0:13:49 1487
   514  3.3812e-03  3.1742e-03  2.0567e-02  6.6643e+00  3.3668e-03  3.8709e-03  1.9660e-03  0:11:03 1486
   515  3.3675e-03  3.1634e-03  2.0507e-02  6.6257e+00  3.3531e-03  3.8552e-03  1.9601e-03  0:13:47 1485
   516  3.3526e-03  3.1531e-03  2.0448e-02  6.5981e+00  3.3383e-03  3.8383e-03  1.9555e-03  0:11:01 1484
   517  3.3288e-03  3.1434e-03  2.0390e-02  6.6220e+00  3.3145e-03  3.8225e-03  1.9497e-03  0:13:45 1483

  iter  continuity  x-velocity  y-velocity  z-velocity      energy           k       omega     time/iter
   518  3.3122e-03  3.1348e-03  2.0332e-02  6.5664e+00  3.2979e-03  3.8072e-03  1.9449e-03  0:11:00 1482
   519  3.2934e-03  3.1263e-03  2.0274e-02  6.5961e+00  3.2791e-03  3.7911e-03  1.9399e-03  0:13:44 1481
   520  3.2717e-03  3.1177e-03  2.0217e-02  6.5681e+00  3.2574e-03  3.7744e-03  1.9375e-03  0:10:58 1480
   521  3.2465e-03  3.1095e-03  2.0161e-02  6.6313e+00  3.2322e-03  3.7593e-03  1.9345e-03  0:13:42 1479
   522  3.2229e-03  3.1026e-03  2.0105e-02  6.6392e+00  3.2086e-03  3.7491e-03  1.9318e-03  0:10:57 1478
   523  3.2036e-03  3.0961e-03  2.0051e-02  6.6606e+00  3.1894e-03  3.7443e-03  1.9291e-03  0:13:41 1477
   524  3.1784e-03  3.0878e-03  1.9997e-02  6.7274e+00  3.1642e-03  3.7389e-03  1.9244e-03  0:10:56 1476
   525  3.1609e-03  3.0805e-03  1.9944e-02  6.5742e+00  3.1468e-03  3.7333e-03  1.9198e-03  0:08:45 1475
   526  3.1431e-03  3.0726e-03  1.9892e-02  6.6411e+00  3.1291e-03  3.7249e-03  1.9160e-03  0:11:54 1474
   527  3.1287e-03  3.0642e-03  1.9840e-02  6.5830e+00  3.1148e-03  3.7159e-03  1.9124e-03  0:09:31 1473
   528  3.1157e-03  3.0564e-03  1.9789e-02  6.6815e+00  3.1018e-03  3.7076e-03  1.9078e-03  0:12:31 1472

  iter  continuity  x-velocity  y-velocity  z-velocity      energy           k       omega     time/iter
   529  3.1014e-03  3.0491e-03  1.9738e-02  6.6005e+00  3.0877e-03  3.6984e-03  1.9026e-03  0:10:00 1471
   530  3.0991e-03  3.0420e-03  1.9688e-02  6.5184e+00  3.0855e-03  3.6877e-03  1.8984e-03  0:12:54 1470
   531  3.0930e-03  3.0350e-03  1.9639e-02  6.5367e+00  3.0794e-03  3.6783e-03  1.8954e-03  0:10:19 1469
   532  3.0836e-03  3.0293e-03  1.9590e-02  6.4594e+00  3.0701e-03  3.6713e-03  1.8900e-03  0:13:08 1468
   533  3.0832e-03  3.0249e-03  1.9541e-02  6.4848e+00  3.0698e-03  3.6660e-03  1.8860e-03  0:10:30 1467
   534  3.0855e-03  3.0197e-03  1.9494e-02  6.4447e+00  3.0721e-03  3.6634e-03  1.8818e-03  0:13:17 1466
   535  3.0719e-03  3.0150e-03  1.9447e-02  6.3579e+00  3.0586e-03  3.6609e-03  1.8779e-03  0:10:37 1465
   536  3.0559e-03  3.0127e-03  1.9401e-02  6.3893e+00  3.0428e-03  3.6520e-03  1.8754e-03  0:13:22 1464
   537  3.0244e-03  3.0104e-03  1.9357e-02  6.3342e+00  3.0115e-03  3.6426e-03  1.8717e-03  0:10:41 1463
   538  2.9955e-03  3.0073e-03  1.9312e-02  6.3240e+00  2.9828e-03  3.6319e-03  1.8675e-03  0:13:25 1462
   539  2.9693e-03  3.0031e-03  1.9269e-02  6.3582e+00  2.9567e-03  3.6219e-03  1.8632e-03  0:10:44 1461

  iter  continuity  x-velocity  y-velocity  z-velocity      energy           k       omega     time/iter
   540  2.9496e-03  2.9997e-03  1.9226e-02  6.3326e+00  2.9372e-03  3.6130e-03  1.8610e-03  0:13:27 1460
   541  2.9417e-03  2.9973e-03  1.9184e-02  6.3629e+00  2.9295e-03  3.6017e-03  1.8583e-03  0:10:45 1459
   542  2.9440e-03  2.9947e-03  1.9142e-02  6.3724e+00  2.9319e-03  3.5910e-03  1.8529e-03  0:13:27 1458
   543  2.9544e-03  2.9908e-03  1.9101e-02  6.4036e+00  2.9424e-03  3.5889e-03  1.8481e-03  0:10:45 1457
   544  2.9767e-03  2.9883e-03  1.9060e-02  6.4132e+00  2.9648e-03  3.5857e-03  1.8442e-03  0:13:27 1456
   545  2.9984e-03  2.9856e-03  1.9019e-02  6.3220e+00  2.9867e-03  3.5825e-03  1.8377e-03  0:10:45 1455
   546  3.0226e-03  2.9812e-03  1.8980e-02  6.3688e+00  3.0110e-03  3.5802e-03  1.8319e-03  0:13:27 1454
   547  3.0501e-03  2.9761e-03  1.8939e-02  6.4000e+00  3.0387e-03  3.5769e-03  1.8277e-03  0:10:45 1453
   548  3.0833e-03  2.9731e-03  1.8900e-02  6.3732e+00  3.0721e-03  3.5710e-03  1.8208e-03  0:13:26 1452
   549  3.1234e-03  2.9697e-03  1.8860e-02  6.3664e+00  3.1123e-03  3.5638e-03  1.8114e-03  0:10:44 1451
   550  3.1641e-03  2.9650e-03  1.8822e-02  6.3483e+00  3.1532e-03  3.5568e-03  1.8032e-03  0:13:25 1450

  iter  continuity  x-velocity  y-velocity  z-velocity      energy           k       omega     time/iter
   551  3.2038e-03  2.9602e-03  1.8783e-02  6.4055e+00  3.1931e-03  3.5470e-03  1.7977e-03  0:10:44 1449
   552  3.2482e-03  2.9540e-03  1.8746e-02  6.4780e+00  3.2377e-03  3.5390e-03  1.7887e-03  0:13:24 1448
   553  3.2996e-03  2.9475e-03  1.8708e-02  6.6748e+00  3.2893e-03  3.5299e-03  1.7792e-03  0:10:43 1447
   554  3.3569e-03  2.9431e-03  1.8671e-02  6.6856e+00  3.3468e-03  3.5202e-03  1.7726e-03  0:13:23 1446
   555  3.4201e-03  2.9391e-03  1.8635e-02  6.6652e+00  3.4102e-03  3.5132e-03  1.7651e-03  0:10:42 1445
   556  3.4960e-03  2.9321e-03  1.8598e-02  6.6130e+00  3.4864e-03  3.5095e-03  1.7582e-03  0:13:22 1444
   557  3.5826e-03  2.9247e-03  1.8561e-02  6.5406e+00  3.5732e-03  3.5070e-03  1.7531e-03  0:10:41 1443
   558  3.6874e-03  2.9214e-03  1.8525e-02  6.4806e+00  3.6785e-03  3.5035e-03  1.7463e-03  0:13:21 1442
   559  3.7850e-03  2.9162e-03  1.8489e-02  6.4567e+00  3.7763e-03  3.4994e-03  1.7413e-03  0:10:40 1441
   560  3.8780e-03  2.9089e-03  1.8453e-02  6.4336e+00  3.8695e-03  3.4920e-03  1.7348e-03  0:13:20 1440
   561  3.9736e-03  2.9033e-03  1.8416e-02  6.4801e+00  3.9654e-03  3.4853e-03  1.7293e-03  0:10:40 1439

  iter  continuity  x-velocity  y-velocity  z-velocity      energy           k       omega     time/iter
   562  4.0714e-03  2.8984e-03  1.8378e-02  6.4758e+00  4.0634e-03  3.4783e-03  1.7236e-03  0:13:19 1438
   563  4.1681e-03  2.8917e-03  1.8341e-02  6.4519e+00  4.1603e-03  3.4701e-03  1.7198e-03  0:10:39 1437
   564  4.2629e-03  2.8865e-03  1.8305e-02  6.4307e+00  4.2552e-03  3.4614e-03  1.7167e-03  0:13:18 1436
   565  4.3554e-03  2.8819e-03  1.8267e-02  6.4469e+00  4.3479e-03  3.4527e-03  1.7099e-03  0:10:38 1435
   566  4.4447e-03  2.8771e-03  1.8230e-02  6.4069e+00  4.4373e-03  3.4433e-03  1.7068e-03  0:08:30 1434
   567  4.5301e-03  2.8709e-03  1.8194e-02  6.3920e+00  4.5227e-03  3.4344e-03  1.7037e-03  0:11:34 1433
   568  4.6123e-03  2.8666e-03  1.8159e-02  6.4051e+00  4.6051e-03  3.4258e-03  1.6983e-03  0:09:15 1432
   569  4.6910e-03  2.8623e-03  1.8123e-02  6.4376e+00  4.6838e-03  3.4187e-03  1.6944e-03  0:12:10 1431
   570  4.7665e-03  2.8578e-03  1.8089e-02  6.3707e+00  4.7592e-03  3.4130e-03  1.6916e-03  0:09:43 1430
   571  4.8318e-03  2.8546e-03  1.8055e-02  6.3923e+00  4.8245e-03  3.4072e-03  1.6875e-03  0:12:32 1429
   572  4.8877e-03  2.8523e-03  1.8023e-02  6.4043e+00  4.8804e-03  3.4005e-03  1.6804e-03  0:10:01 1428

  iter  continuity  x-velocity  y-velocity  z-velocity      energy           k       omega     time/iter
   573  4.9463e-03  2.8463e-03  1.7992e-02  6.3858e+00  4.9388e-03  3.3939e-03  1.6733e-03  0:12:46 1427
   574  5.0062e-03  2.8424e-03  1.7962e-02  6.3799e+00  4.9987e-03  3.3868e-03  1.6676e-03  0:10:13 1426
   575  5.0657e-03  2.8395e-03  1.7932e-02  6.3491e+00  5.0581e-03  3.3786e-03  1.6614e-03  0:12:55 1425
   576  5.1262e-03  2.8364e-03  1.7902e-02  6.3144e+00  5.1186e-03  3.3710e-03  1.6550e-03  0:10:19 1424
   577  5.1835e-03  2.8344e-03  1.7875e-02  6.2728e+00  5.1757e-03  3.3639e-03  1.6500e-03  0:13:00 1423
   578  5.2279e-03  2.8306e-03  1.7848e-02  6.3120e+00  5.2200e-03  3.3552e-03  1.6448e-03  0:10:23 1422
   579  5.2668e-03  2.8241e-03  1.7822e-02  6.2955e+00  5.2587e-03  3.3470e-03  1.6402e-03  0:13:02 1421
   580  5.3008e-03  2.8183e-03  1.7798e-02  6.2346e+00  5.2926e-03  3.3394e-03  1.6362e-03  0:10:26 1420
   581  5.3318e-03  2.8152e-03  1.7774e-02  6.2757e+00  5.3234e-03  3.3296e-03  1.6326e-03  0:13:04 1419
   582  5.3741e-03  2.8126e-03  1.7751e-02  6.2995e+00  5.3656e-03  3.3181e-03  1.6277e-03  0:10:27 1418
   583  5.4128e-03  2.8092e-03  1.7730e-02  6.2915e+00  5.4041e-03  3.3083e-03  1.6219e-03  0:13:04 1417

  iter  continuity  x-velocity  y-velocity  z-velocity      energy           k       omega     time/iter
   584  5.4292e-03  2.8034e-03  1.7709e-02  6.3274e+00  5.4203e-03  3.3000e-03  1.6172e-03  0:10:27 1416
   585  5.4262e-03  2.7969e-03  1.7687e-02  6.3947e+00  5.4170e-03  3.2916e-03  1.6130e-03  0:13:04 1415
   586  5.4139e-03  2.7924e-03  1.7666e-02  6.3933e+00  5.4044e-03  3.2843e-03  1.6077e-03  0:10:27 1414
   587  5.3967e-03  2.7875e-03  1.7648e-02  6.3900e+00  5.3869e-03  3.2783e-03  1.6033e-03  0:13:04 1413
   588  5.3770e-03  2.7822e-03  1.7632e-02  6.4307e+00  5.3669e-03  3.2720e-03  1.5971e-03  0:10:27 1412
   589  5.3567e-03  2.7757e-03  1.7620e-02  6.4518e+00  5.3464e-03  3.2664e-03  1.5906e-03  0:13:03 1411
   590  5.3362e-03  2.7650e-03  1.7612e-02  6.4357e+00  5.3255e-03  3.2614e-03  1.5852e-03  0:10:26 1410
   591  5.3141e-03  2.7528e-03  1.7608e-02  6.4008e+00  5.3031e-03  3.2556e-03  1.5780e-03  0:13:02 1409
   592  5.2874e-03  2.7397e-03  1.7608e-02  6.3596e+00  5.2762e-03  3.2490e-03  1.5717e-03  0:10:25 1408
   593  5.2597e-03  2.7251e-03  1.7611e-02  6.2256e+00  5.2482e-03  3.2413e-03  1.5657e-03  0:13:01 1407
   594  5.2322e-03  2.7081e-03  1.7620e-02  6.0731e+00  5.2206e-03  3.2344e-03  1.5583e-03  0:10:25 1406

  iter  continuity  x-velocity  y-velocity  z-velocity      energy           k       omega     time/iter
   595  5.2004e-03  2.6881e-03  1.7636e-02  5.9050e+00  5.1885e-03  3.2273e-03  1.5514e-03  0:13:00 1405
   596  5.1628e-03  2.6663e-03  1.7654e-02  5.7237e+00  5.1507e-03  3.2205e-03  1.5457e-03  0:10:24 1404
   597  5.1266e-03  2.6448e-03  1.7675e-02  5.6213e+00  5.1145e-03  3.2156e-03  1.5394e-03  0:12:59 1403
   598  5.0937e-03  2.6254e-03  1.7697e-02  5.5764e+00  5.0815e-03  3.2115e-03  1.5336e-03  0:10:23 1402
   599  5.0660e-03  2.6076e-03  1.7720e-02  5.5744e+00  5.0537e-03  3.2088e-03  1.5262e-03  0:12:58 1401
   600  5.0440e-03  2.5922e-03  1.7745e-02  5.5628e+00  5.0317e-03  3.2064e-03  1.5178e-03  0:10:22 1400
   601  5.0239e-03  2.5792e-03  1.7771e-02  5.6050e+00  5.0116e-03  3.2044e-03  1.5106e-03  0:12:57 1399
   602  5.0075e-03  2.5689e-03  1.7793e-02  5.6950e+00  4.9952e-03  3.2019e-03  1.5021e-03  0:10:21 1398
   603  4.9921e-03  2.5609e-03  1.7815e-02  5.7726e+00  4.9799e-03  3.1990e-03  1.4954e-03  0:12:56 1397
   604  4.9746e-03  2.5557e-03  1.7837e-02  5.8284e+00  4.9625e-03  3.1966e-03  1.4864e-03  0:10:20 1396
   605  4.9503e-03  2.5526e-03  1.7861e-02  5.8310e+00  4.9383e-03  3.1929e-03  1.4784e-03  0:12:55 1395

  iter  continuity  x-velocity  y-velocity  z-velocity      energy           k       omega     time/iter
   606  4.9213e-03  2.5506e-03  1.7886e-02  5.8067e+00  4.9092e-03  3.1897e-03  1.4712e-03  0:10:20 1394
   607  4.8903e-03  2.5494e-03  1.7910e-02  5.8064e+00  4.8783e-03  3.1888e-03  1.4627e-03  0:12:54 1393
   608  4.8558e-03  2.5488e-03  1.7932e-02  5.7943e+00  4.8438e-03  3.1900e-03  1.4546e-03  0:10:19 1392
   609  4.8153e-03  2.5468e-03  1.7950e-02  5.7805e+00  4.8032e-03  3.1919e-03  1.4458e-03  0:08:15 1391
   610  4.7844e-03  2.5459e-03  1.7965e-02  5.7277e+00  4.7723e-03  3.1929e-03  1.4380e-03  0:11:13 1390
   611  4.7549e-03  2.5462e-03  1.7975e-02  5.5738e+00  4.7429e-03  3.1937e-03  1.4313e-03  0:08:58 1389
   612  4.7299e-03  2.5480e-03  1.7980e-02  5.4080e+00  4.7180e-03  3.1937e-03  1.4254e-03  0:11:48 1388
   613  4.7067e-03  2.5507e-03  1.7978e-02  5.2239e+00  4.6950e-03  3.1929e-03  1.4214e-03  0:09:26 1387
   614  4.6815e-03  2.5537e-03  1.7969e-02  5.0500e+00  4.6700e-03  3.1919e-03  1.4164e-03  0:12:10 1386
   615  4.6525e-03  2.5572e-03  1.7948e-02  4.9077e+00  4.6411e-03  3.1892e-03  1.4131e-03  0:09:43 1385
   616  4.6178e-03  2.5619e-03  1.7914e-02  4.7792e+00  4.6067e-03  3.1851e-03  1.4090e-03  0:12:23 1384

  iter  continuity  x-velocity  y-velocity  z-velocity      energy           k       omega     time/iter
   617  4.5759e-03  2.5669e-03  1.7864e-02  4.6954e+00  4.5650e-03  3.1810e-03  1.4056e-03  0:09:54 1383
   618  4.5271e-03  2.5729e-03  1.7796e-02  4.6443e+00  4.5164e-03  3.1754e-03  1.4028e-03  0:12:31 1382
   619  4.4691e-03  2.5783e-03  1.7746e-02  4.6027e+00  4.4586e-03  3.1675e-03  1.3997e-03  0:10:01 1381
   620  4.4032e-03  2.5842e-03  1.7688e-02  4.7529e+00  4.3929e-03  3.1580e-03  1.3964e-03  0:12:36 1380
   621  4.3326e-03  2.5908e-03  1.7611e-02  4.8885e+00  4.3224e-03  3.1487e-03  1.3941e-03  0:10:04 1379
   622  4.2592e-03  2.5992e-03  1.7521e-02  4.9500e+00  4.2492e-03  3.1382e-03  1.3911e-03  0:12:39 1378
   623  4.1853e-03  2.6080e-03  1.7422e-02  4.9035e+00  4.1755e-03  3.1256e-03  1.3886e-03  0:10:07 1377
   624  4.1116e-03  2.6172e-03  1.7319e-02  4.8001e+00  4.1020e-03  3.1131e-03  1.3854e-03  0:12:40 1376
   625  4.0395e-03  2.6275e-03  1.7212e-02  4.7115e+00  4.0301e-03  3.0998e-03  1.3839e-03  0:10:08 1375
   626  3.9688e-03  2.6393e-03  1.7093e-02  4.6070e+00  3.9596e-03  3.0863e-03  1.3833e-03  0:12:41 1374
[...]
  1838  1.3854e-03  1.5262e-03  7.8054e-03  2.4393e+01  1.3805e-03  2.4631e-03  1.2904e-03  0:00:52  162
  1839  1.3856e-03  1.5320e-03  7.7961e-03  2.4396e+01  1.3807e-03  2.4646e-03  1.2928e-03  0:00:42  161
  1840  1.3853e-03  1.5384e-03  7.7850e-03  2.4264e+01  1.3805e-03  2.4675e-03  1.2944e-03  0:01:05  160
  1841  1.3846e-03  1.5455e-03  7.7713e-03  2.4016e+01  1.3798e-03  2.4704e-03  1.2966e-03  0:00:52  159
  1842  1.3831e-03  1.5531e-03  7.7547e-03  2.3666e+01  1.3785e-03  2.4697e-03  1.3009e-03  0:00:41  158
  1843  1.3810e-03  1.5614e-03  7.7355e-03  2.3203e+01  1.3763e-03  2.4694e-03  1.3076e-03  0:01:04  157
  1844  1.3781e-03  1.5702e-03  7.7139e-03  2.2634e+01  1.3735e-03  2.4685e-03  1.3116e-03  0:00:51  156
  1845  1.3742e-03  1.5792e-03  7.6900e-03  2.1980e+01  1.3696e-03  2.4680e-03  1.3159e-03  0:00:40  155
  1846  1.3699e-03  1.5885e-03  7.6640e-03  2.1246e+01  1.3654e-03  2.4703e-03  1.3194e-03  0:01:03  154
  1847  1.3645e-03  1.5978e-03  7.6352e-03  2.0458e+01  1.3600e-03  2.4716e-03  1.3214e-03  0:00:50  153
  1848  1.3582e-03  1.6069e-03  7.6043e-03  1.9639e+01  1.3538e-03  2.4735e-03  1.3271e-03  0:00:40  152

  iter  continuity  x-velocity  y-velocity  z-velocity      energy           k       omega     time/iter
  1849  1.3513e-03  1.6159e-03  7.5716e-03  1.8809e+01  1.3469e-03  2.4757e-03  1.3326e-03  0:01:02  151
  1850  1.3438e-03  1.6244e-03  7.5376e-03  1.7982e+01  1.3394e-03  2.4827e-03  1.3367e-03  0:00:49  150
  1851  1.3359e-03  1.6322e-03  7.5021e-03  1.7173e+01  1.3315e-03  2.4906e-03  1.3402e-03  0:00:39  149
  1852  1.3276e-03  1.6393e-03  7.4663e-03  1.6394e+01  1.3232e-03  2.4989e-03  1.3438e-03  0:01:01  148
  1853  1.3190e-03  1.6458e-03  7.4301e-03  1.5659e+01  1.3146e-03  2.5090e-03  1.3473e-03  0:00:48  147
  1854  1.3108e-03  1.6517e-03  7.3945e-03  1.4970e+01  1.3065e-03  2.5206e-03  1.3498e-03  0:00:38  146
  1855  1.3032e-03  1.6565e-03  7.3592e-03  1.4321e+01  1.2988e-03  2.5333e-03  1.3527e-03  0:00:59  145
  1856  1.2964e-03  1.6605e-03  7.3241e-03  1.3723e+01  1.2920e-03  2.5452e-03  1.3587e-03  0:00:47  144
  1857  1.2918e-03  1.6638e-03  7.2904e-03  1.3151e+01  1.2874e-03  2.5551e-03  1.3673e-03  0:00:37  143
  1858  1.2900e-03  1.6662e-03  7.2582e-03  1.2591e+01  1.2855e-03  2.5679e-03  1.3752e-03  0:00:58  142
  1859  1.2911e-03  1.6678e-03  7.2270e-03  1.2038e+01  1.2866e-03  2.5814e-03  1.3814e-03  0:00:46  141

  iter  continuity  x-velocity  y-velocity  z-velocity      energy           k       omega     time/iter
  1860  1.2955e-03  1.6687e-03  7.1963e-03  1.1487e+01  1.2910e-03  2.5944e-03  1.3868e-03  0:00:37  140
  1861  1.3029e-03  1.6690e-03  7.1662e-03  1.0938e+01  1.2984e-03  2.6079e-03  1.3953e-03  0:00:57  139
  1862  1.3147e-03  1.6688e-03  7.1377e-03  1.0386e+01  1.3101e-03  2.6207e-03  1.3981e-03  0:00:45  138
  1863  1.3309e-03  1.6684e-03  7.1102e-03  9.8439e+00  1.3263e-03  2.6327e-03  1.3987e-03  0:01:03  137
  1864  1.3513e-03  1.6677e-03  7.0835e-03  9.2942e+00  1.3467e-03  2.6434e-03  1.3998e-03  0:00:50  136
  1865  1.3769e-03  1.6669e-03  7.0582e-03  8.7568e+00  1.3723e-03  2.6537e-03  1.4029e-03  0:00:40  135
  1866  1.4080e-03  1.6662e-03  7.0354e-03  8.2300e+00  1.4033e-03  2.6627e-03  1.4051e-03  0:00:59  134
  1867  1.4453e-03  1.6656e-03  7.0151e-03  7.7257e+00  1.4407e-03  2.6707e-03  1.4074e-03  0:00:46  133
  1868  1.4885e-03  1.6646e-03  6.9980e-03  7.2598e+00  1.4840e-03  2.6789e-03  1.4100e-03  0:00:37  132
  1869  1.5385e-03  1.6637e-03  6.9857e-03  6.8493e+00  1.5340e-03  2.6863e-03  1.4147e-03  0:00:55  131
  1870  1.5953e-03  1.6633e-03  6.9748e-03  6.5036e+00  1.5910e-03  2.6917e-03  1.4209e-03  0:00:44  130

  iter  continuity  x-velocity  y-velocity  z-velocity      energy           k       omega     time/iter
  1871  1.6600e-03  1.6631e-03  6.9617e-03  6.2274e+00  1.6557e-03  2.6969e-03  1.4265e-03  0:00:35  129
  1872  1.7322e-03  1.6631e-03  6.9470e-03  6.0158e+00  1.7281e-03  2.7028e-03  1.4292e-03  0:00:53  128
  1873  1.8134e-03  1.6633e-03  6.9314e-03  5.8773e+00  1.8093e-03  2.7090e-03  1.4300e-03  0:00:42  127
  1874  1.8996e-03  1.6639e-03  6.9159e-03  5.8087e+00  1.8956e-03  2.7148e-03  1.4306e-03  0:00:34  126
  1875  1.9860e-03  1.6647e-03  6.9007e-03  5.8052e+00  1.9821e-03  2.7197e-03  1.4370e-03  0:00:52  125
  1876  2.0887e-03  1.6654e-03  6.8858e-03  5.8333e+00  2.0849e-03  2.7266e-03  1.4434e-03  0:00:41  124
  1877  2.2037e-03  1.6659e-03  6.8705e-03  5.9045e+00  2.2000e-03  2.7342e-03  1.4480e-03  0:00:33  123
  1878  2.3036e-03  1.6665e-03  6.8536e-03  6.1298e+00  2.3000e-03  2.7418e-03  1.4507e-03  0:00:50  122
  1879  2.4131e-03  1.6667e-03  6.8423e-03  6.4239e+00  2.4096e-03  2.7501e-03  1.4540e-03  0:00:40  121
  1880  2.5173e-03  1.6667e-03  6.8374e-03  6.7639e+00  2.5139e-03  2.7591e-03  1.4548e-03  0:00:32  120
  1881  2.6321e-03  1.6667e-03  6.8136e-03  7.1528e+00  2.6287e-03  2.7707e-03  1.4582e-03  0:00:49  119

  iter  continuity  x-velocity  y-velocity  z-velocity      energy           k       omega     time/iter
  1882  2.7647e-03  1.6665e-03  6.7963e-03  7.5982e+00  2.7614e-03  2.7821e-03  1.4618e-03  0:00:39  118
  1883  2.9121e-03  1.6659e-03  6.7794e-03  8.0676e+00  2.9090e-03  2.7941e-03  1.4663e-03  0:00:31  117
  1884  3.0710e-03  1.6651e-03  6.7620e-03  8.5168e+00  3.0680e-03  2.8066e-03  1.4699e-03  0:00:24  116
  1885  3.2186e-03  1.6643e-03  6.7451e-03  8.9928e+00  3.2158e-03  2.8203e-03  1.4694e-03  0:00:42  115
  1886  3.3521e-03  1.6637e-03  6.7290e-03  9.4614e+00  3.3493e-03  2.8349e-03  1.4703e-03  0:00:34  114
  1887  3.4729e-03  1.6635e-03  6.7129e-03  9.9035e+00  3.4703e-03  2.8497e-03  1.4707e-03  0:00:27  113
  1888  3.5804e-03  1.6631e-03  6.6959e-03  1.0298e+01  3.5778e-03  2.8645e-03  1.4728e-03  0:00:44  112
  1889  3.6737e-03  1.6620e-03  6.6773e-03  1.0654e+01  3.6712e-03  2.8801e-03  1.4732e-03  0:00:35  111
  1890  3.7513e-03  1.6602e-03  6.6568e-03  1.0995e+01  3.7488e-03  2.8963e-03  1.4774e-03  0:00:27  110
  1891  3.8130e-03  1.6578e-03  6.6343e-03  1.1335e+01  3.8106e-03  2.9135e-03  1.4817e-03  0:00:43  109
  1892  3.8587e-03  1.6543e-03  6.6095e-03  1.1682e+01  3.8563e-03  2.9309e-03  1.4839e-03  0:00:34  108

  iter  continuity  x-velocity  y-velocity  z-velocity      energy           k       omega     time/iter
  1893  3.8911e-03  1.6504e-03  6.5819e-03  1.2052e+01  3.8887e-03  2.9497e-03  1.4873e-03  0:00:27  107
  1894  3.9082e-03  1.6456e-03  6.5515e-03  1.2394e+01  3.9058e-03  2.9677e-03  1.4882e-03  0:00:43  106
  1895  3.9119e-03  1.6407e-03  6.5186e-03  1.2663e+01  3.9095e-03  2.9854e-03  1.4901e-03  0:00:34  105
  1896  3.9079e-03  1.6350e-03  6.4833e-03  1.2843e+01  3.9054e-03  3.0005e-03  1.4926e-03  0:00:27  104
  1897  3.8989e-03  1.6287e-03  6.4450e-03  1.2956e+01  3.8964e-03  3.0124e-03  1.4980e-03  0:00:42  103
  1898  3.8844e-03  1.6229e-03  6.4034e-03  1.3001e+01  3.8819e-03  3.0241e-03  1.5016e-03  0:00:33  102
  1899  3.8663e-03  1.6173e-03  6.3589e-03  1.2988e+01  3.8638e-03  3.0354e-03  1.5053e-03  0:00:26  101
  1900  3.8471e-03  1.6130e-03  6.3125e-03  1.2921e+01  3.8446e-03  3.0479e-03  1.5039e-03  0:00:41  100
  1901  3.8248e-03  1.6099e-03  6.2653e-03  1.2807e+01  3.8222e-03  3.0594e-03  1.5052e-03  0:00:32   99
  1902  3.7987e-03  1.6075e-03  6.2191e-03  1.2648e+01  3.7961e-03  3.0707e-03  1.5112e-03  0:00:26   98
  1903  3.7698e-03  1.6052e-03  6.1750e-03  1.2442e+01  3.7672e-03  3.0813e-03  1.5129e-03  0:00:20   97

  iter  continuity  x-velocity  y-velocity  z-velocity      energy           k       omega     time/iter
  1904  3.7407e-03  1.6030e-03  6.1340e-03  1.2185e+01  3.7381e-03  3.0920e-03  1.5130e-03  0:00:35   96
  1905  3.7133e-03  1.6009e-03  6.0964e-03  1.1885e+01  3.7107e-03  3.1018e-03  1.5113e-03  0:00:28   95
  1906  3.6833e-03  1.5988e-03  6.0627e-03  1.1538e+01  3.6807e-03  3.1110e-03  1.5133e-03  0:00:22   94
  1907  3.6503e-03  1.5965e-03  6.0329e-03  1.1163e+01  3.6477e-03  3.1203e-03  1.5130e-03  0:00:36   93
  1908  3.6140e-03  1.5940e-03  6.0076e-03  1.0769e+01  3.6114e-03  3.1295e-03  1.5131e-03  0:00:29   92
  1909  3.5752e-03  1.5911e-03  5.9861e-03  1.0356e+01  3.5726e-03  3.1382e-03  1.5147e-03  0:00:23   91
  1910  3.5338e-03  1.5875e-03  5.9668e-03  9.9354e+00  3.5312e-03  3.1450e-03  1.5161e-03  0:00:36   90
  1911  3.4918e-03  1.5832e-03  5.9506e-03  9.4832e+00  3.4892e-03  3.1496e-03  1.5175e-03  0:00:28   89
  1912  3.4431e-03  1.5783e-03  5.9372e-03  9.0065e+00  3.4405e-03  3.1545e-03  1.5191e-03  0:00:22   88
  1913  3.3874e-03  1.5729e-03  5.9258e-03  8.5333e+00  3.3848e-03  3.1596e-03  1.5208e-03  0:00:35   87
  1914  3.3258e-03  1.5673e-03  5.9139e-03  8.0842e+00  3.3231e-03  3.1658e-03  1.5239e-03  0:00:28   86

  iter  continuity  x-velocity  y-velocity  z-velocity      energy           k       omega     time/iter
  1915  3.2575e-03  1.5613e-03  5.9033e-03  7.6704e+00  3.2549e-03  3.1727e-03  1.5271e-03  0:00:22   85
  1916  3.1871e-03  1.5554e-03  5.8943e-03  7.2625e+00  3.1844e-03  3.1802e-03  1.5284e-03  0:00:17   84
  1917  3.1160e-03  1.5498e-03  5.8859e-03  6.8816e+00  3.1133e-03  3.1900e-03  1.5285e-03  0:00:30   83
  1918  3.0368e-03  1.5445e-03  5.8751e-03  6.5306e+00  3.0339e-03  3.2039e-03  1.5305e-03  0:00:24   82
  1919  2.9513e-03  1.5399e-03  5.8804e-03  6.2479e+00  2.9484e-03  3.2190e-03  1.5347e-03  0:00:19   81
  1920  2.8635e-03  1.5354e-03  5.8840e-03  5.9498e+00  2.8605e-03  3.2344e-03  1.5385e-03  0:00:31   80
  1921  2.7772e-03  1.5315e-03  5.8753e-03  5.6626e+00  2.7740e-03  3.2522e-03  1.5399e-03  0:00:24   79
  1922  2.6917e-03  1.5281e-03  5.8738e-03  5.4272e+00  2.6885e-03  3.2737e-03  1.5391e-03  0:00:19   78
  1923  2.6089e-03  1.5250e-03  5.8736e-03  5.2436e+00  2.6055e-03  3.2974e-03  1.5356e-03  0:00:15   77
  1924  2.5306e-03  1.5221e-03  5.8729e-03  5.1005e+00  2.5271e-03  3.3246e-03  1.5344e-03  0:00:27   76
  1925  2.4487e-03  1.5191e-03  5.8705e-03  4.9679e+00  2.4451e-03  3.3517e-03  1.5326e-03  0:00:22   75

  iter  continuity  x-velocity  y-velocity  z-velocity      energy           k       omega     time/iter
  1926  2.3667e-03  1.5166e-03  5.8663e-03  4.8333e+00  2.3629e-03  3.3776e-03  1.5318e-03  0:00:17   74
  1927  2.2945e-03  1.5146e-03  5.8602e-03  4.7087e+00  2.2906e-03  3.4041e-03  1.5326e-03  0:00:28   73
  1928  2.2330e-03  1.5129e-03  5.8526e-03  4.6498e+00  2.2290e-03  3.4305e-03  1.5318e-03  0:00:22   72
  1929  2.1715e-03  1.5114e-03  5.8419e-03  4.6491e+00  2.1674e-03  3.4583e-03  1.5345e-03  0:00:17   71
  1930  2.1121e-03  1.5107e-03  5.8305e-03  4.7111e+00  2.1078e-03  3.4857e-03  1.5411e-03  0:00:28   70
  1931  2.0583e-03  1.5106e-03  5.8204e-03  4.8150e+00  2.0540e-03  3.5111e-03  1.5487e-03  0:00:22   69
  1932  2.0083e-03  1.5106e-03  5.8120e-03  4.9927e+00  2.0039e-03  3.5360e-03  1.5494e-03  0:00:17   68
  1933  1.9675e-03  1.5117e-03  5.8056e-03  5.2025e+00  1.9630e-03  3.5649e-03  1.5504e-03  0:00:14   67
  1934  1.9232e-03  1.5128e-03  5.8011e-03  5.4490e+00  1.9186e-03  3.5957e-03  1.5511e-03  0:00:24   66
  1935  1.8900e-03  1.5149e-03  5.7992e-03  5.7351e+00  1.8853e-03  3.6240e-03  1.5547e-03  0:00:19   65
  1936  1.8645e-03  1.5172e-03  5.8005e-03  6.0452e+00  1.8598e-03  3.6500e-03  1.5592e-03  0:00:15   64

  iter  continuity  x-velocity  y-velocity  z-velocity      energy           k       omega     time/iter
  1937  1.8409e-03  1.5179e-03  5.8052e-03  6.3637e+00  1.8361e-03  3.6755e-03  1.5623e-03  0:00:24   63
  1938  1.8211e-03  1.5190e-03  5.8129e-03  6.6605e+00  1.8162e-03  3.7000e-03  1.5610e-03  0:00:19   62
  1939  1.8025e-03  1.5197e-03  5.8236e-03  6.8863e+00  1.7976e-03  3.7237e-03  1.5620e-03  0:00:15   61
  1940  1.7841e-03  1.5185e-03  5.8365e-03  7.0910e+00  1.7791e-03  3.7485e-03  1.5616e-03  0:00:24   60
  1941  1.7625e-03  1.5165e-03  5.8503e-03  7.2803e+00  1.7574e-03  3.7767e-03  1.5617e-03  0:00:19   59
  1942  1.7429e-03  1.5143e-03  5.8634e-03  7.4299e+00  1.7377e-03  3.8055e-03  1.5618e-03  0:00:15   58
  1943  1.7236e-03  1.5111e-03  5.8756e-03  7.5431e+00  1.7185e-03  3.8305e-03  1.5665e-03  0:00:23   57
  1944  1.7072e-03  1.5070e-03  5.8872e-03  7.6174e+00  1.7019e-03  3.8579e-03  1.5647e-03  0:00:18   56
  1945  1.6904e-03  1.5033e-03  5.8964e-03  7.6694e+00  1.6851e-03  3.8854e-03  1.5630e-03  0:00:14   55
  1946  1.6747e-03  1.4998e-03  5.9030e-03  7.7156e+00  1.6694e-03  3.9106e-03  1.5616e-03  0:00:22   54
  1947  1.6612e-03  1.4956e-03  5.9086e-03  7.7569e+00  1.6558e-03  3.9326e-03  1.5588e-03  0:00:17   53

  iter  continuity  x-velocity  y-velocity  z-velocity      energy           k       omega     time/iter
  1948  1.6478e-03  1.4913e-03  5.9140e-03  7.7627e+00  1.6425e-03  3.9530e-03  1.5574e-03  0:00:14   52
  1949  1.6330e-03  1.4865e-03  5.9273e-03  7.7209e+00  1.6277e-03  3.9706e-03  1.5620e-03  0:00:11   51
  1950  1.6178e-03  1.4809e-03  5.9433e-03  7.6444e+00  1.6125e-03  3.9846e-03  1.5681e-03  0:00:18   50
  1951  1.6022e-03  1.4745e-03  5.9598e-03  7.5749e+00  1.5969e-03  3.9975e-03  1.5626e-03  0:00:14   49
  1952  1.5865e-03  1.4670e-03  5.9763e-03  7.5203e+00  1.5812e-03  4.0109e-03  1.5570e-03  0:00:11   48
  1953  1.5706e-03  1.4591e-03  5.9916e-03  7.4809e+00  1.5654e-03  4.0234e-03  1.5506e-03  0:00:18   47
  1954  1.5522e-03  1.4510e-03  6.0066e-03  7.4430e+00  1.5470e-03  4.0349e-03  1.5467e-03  0:00:14   46
  1955  1.5355e-03  1.4428e-03  6.0229e-03  7.4034e+00  1.5303e-03  4.0454e-03  1.5396e-03  0:00:11   45
  1956  1.5207e-03  1.4344e-03  6.0321e-03  7.3907e+00  1.5156e-03  4.0563e-03  1.5355e-03  0:00:09   44
  1957  1.5100e-03  1.4264e-03  6.0416e-03  7.2933e+00  1.5050e-03  4.0683e-03  1.5266e-03  0:00:15   43
  1958  1.5029e-03  1.4189e-03  6.0494e-03  7.2193e+00  1.4980e-03  4.0784e-03  1.5179e-03  0:00:12   42

  iter  continuity  x-velocity  y-velocity  z-velocity      energy           k       omega     time/iter
  1959  1.4948e-03  1.4117e-03  6.0568e-03  7.1573e+00  1.4900e-03  4.0878e-03  1.5157e-03  0:00:09   41
  1960  1.4929e-03  1.4048e-03  6.0652e-03  7.0986e+00  1.4882e-03  4.0968e-03  1.5106e-03  0:00:15   40
  1961  1.4956e-03  1.3980e-03  6.0747e-03  7.0412e+00  1.4910e-03  4.1062e-03  1.5041e-03  0:00:12   39
  1962  1.5007e-03  1.3915e-03  6.0861e-03  6.9717e+00  1.4962e-03  4.1162e-03  1.4975e-03  0:00:09   38
  1963  1.5083e-03  1.3855e-03  6.1002e-03  6.8825e+00  1.5039e-03  4.1238e-03  1.4902e-03  0:00:15   37
  1964  1.5160e-03  1.3800e-03  6.1176e-03  6.7850e+00  1.5117e-03  4.1327e-03  1.4794e-03  0:00:11   36
  1965  1.5230e-03  1.3748e-03  6.1395e-03  6.6812e+00  1.5188e-03  4.1448e-03  1.4802e-03  0:00:09   35
  1966  1.5298e-03  1.3699e-03  6.1660e-03  6.5633e+00  1.5256e-03  4.1580e-03  1.4785e-03  0:00:07   34
  1967  1.5379e-03  1.3655e-03  6.1972e-03  6.4363e+00  1.5338e-03  4.1727e-03  1.4721e-03  0:00:12   33
  1968  1.5454e-03  1.3621e-03  6.2343e-03  6.2969e+00  1.5412e-03  4.1848e-03  1.4713e-03  0:00:09   32
  1969  1.5523e-03  1.3590e-03  6.2767e-03  6.1629e+00  1.5481e-03  4.1987e-03  1.4704e-03  0:00:07   31

  iter  continuity  x-velocity  y-velocity  z-velocity      energy           k       omega     time/iter
  1970  1.5620e-03  1.3564e-03  6.3222e-03  6.0297e+00  1.5578e-03  4.2162e-03  1.4692e-03  0:00:06   30
  1971  1.5737e-03  1.3544e-03  6.3688e-03  5.8995e+00  1.5695e-03  4.2358e-03  1.4685e-03  0:00:10   29
  1972  1.5863e-03  1.3547e-03  6.4131e-03  5.7674e+00  1.5822e-03  4.2571e-03  1.4659e-03  0:00:08   28
  1973  1.6009e-03  1.3549e-03  6.4557e-03  5.6722e+00  1.5967e-03  4.2788e-03  1.4615e-03  0:00:06   27
  1974  1.6175e-03  1.3566e-03  6.4963e-03  5.5868e+00  1.6133e-03  4.3020e-03  1.4552e-03  0:00:05   26
  1975  1.6336e-03  1.3598e-03  6.5338e-03  5.5427e+00  1.6295e-03  4.3217e-03  1.4493e-03  0:00:09   25
  1976  1.6515e-03  1.3629e-03  6.5674e-03  5.5192e+00  1.6474e-03  4.3345e-03  1.4461e-03  0:00:07   24
  1977  1.6724e-03  1.3653e-03  6.5974e-03  5.4832e+00  1.6683e-03  4.3479e-03  1.4458e-03  0:00:05   23
  1978  1.6914e-03  1.3669e-03  6.6241e-03  5.4058e+00  1.6872e-03  4.3569e-03  1.4469e-03  0:00:08   22
  1979  1.7056e-03  1.3674e-03  6.6478e-03  5.3291e+00  1.7014e-03  4.3601e-03  1.4472e-03  0:00:06   21
  1980  1.7177e-03  1.3672e-03  6.6689e-03  5.2581e+00  1.7134e-03  4.3562e-03  1.4413e-03  0:00:05   20

  iter  continuity  x-velocity  y-velocity  z-velocity      energy           k       omega     time/iter
  1981  1.7300e-03  1.3657e-03  6.7006e-03  5.2027e+00  1.7256e-03  4.3508e-03  1.4376e-03  0:00:04   19
  1982  1.7417e-03  1.3634e-03  6.7272e-03  5.1824e+00  1.7372e-03  4.3427e-03  1.4306e-03  0:00:06   18
  1983  1.7507e-03  1.3604e-03  6.7558e-03  5.1883e+00  1.7462e-03  4.3378e-03  1.4220e-03  0:00:05   17
  1984  1.7573e-03  1.3567e-03  6.7856e-03  5.2614e+00  1.7527e-03  4.3335e-03  1.4142e-03  0:00:04   16
  1985  1.7628e-03  1.3516e-03  6.8149e-03  5.4233e+00  1.7581e-03  4.3372e-03  1.4067e-03  0:00:06   15
  1986  1.7652e-03  1.3461e-03  6.8462e-03  5.6342e+00  1.7604e-03  4.3369e-03  1.4048e-03  0:00:04   14
  1987  1.7639e-03  1.3403e-03  6.8790e-03  5.8659e+00  1.7590e-03  4.3379e-03  1.3949e-03  0:00:03   13
  1988  1.7600e-03  1.3343e-03  6.9119e-03  6.1033e+00  1.7552e-03  4.3417e-03  1.3889e-03  0:00:02   12
  1989  1.7528e-03  1.3278e-03  6.9454e-03  6.3430e+00  1.7479e-03  4.3497e-03  1.3886e-03  0:00:04   11
  1990  1.7426e-03  1.3211e-03  6.9793e-03  6.5776e+00  1.7376e-03  4.3527e-03  1.3853e-03  0:00:03   10
  1991  1.7317e-03  1.3148e-03  7.0128e-03  6.8065e+00  1.7266e-03  4.3507e-03  1.3845e-03  0:00:02    9

  iter  continuity  x-velocity  y-velocity  z-velocity      energy           k       omega     time/iter
  1992  1.7161e-03  1.3084e-03  7.0450e-03  7.0285e+00  1.7110e-03  4.3442e-03  1.3829e-03  0:00:03    8
  1993  1.7010e-03  1.3027e-03  7.0751e-03  7.2450e+00  1.6958e-03  4.3367e-03  1.3794e-03  0:00:02    7
  1994  1.6857e-03  1.2976e-03  7.1026e-03  7.4739e+00  1.6805e-03  4.3308e-03  1.3754e-03  0:00:01    6
  1995  1.6694e-03  1.2927e-03  7.1279e-03  7.7130e+00  1.6642e-03  4.3239e-03  1.3742e-03  0:00:02    5
  1996  1.6529e-03  1.2882e-03  7.1518e-03  7.9682e+00  1.6476e-03  4.3188e-03  1.3718e-03  0:00:01    4
  1997  1.6367e-03  1.2842e-03  7.1752e-03  8.2415e+00  1.6314e-03  4.3172e-03  1.3685e-03  0:00:01    3
  1998  1.6210e-03  1.2808e-03  7.1988e-03  8.5150e+00  1.6157e-03  4.3113e-03  1.3659e-03  0:00:00    2
  1999  1.6066e-03  1.2778e-03  7.2238e-03  8.7832e+00  1.6013e-03  4.2981e-03  1.3612e-03  0:00:00    1
  2000  1.5936e-03  1.2756e-03  7.2499e-03  9.0492e+00  1.5883e-03  4.2891e-03  1.3572e-03  0:00:00    0

> 
adjoint/                parallel/               server/
define/                 parametric-study/       solve/
display/                plot/                   surface/
exit                    preferences/            turbo-workflow/
file/                   print-license-usage     views/
mesh/                   report/

> /file/write-case-data project1
Fast-loading "C:\PROGRA~1\ANSYSI~1\v231\fluent\fluent23.1.0\\addons\afd\lib\hdfio.bin"
Done.

Writing to Engs-30669:"C:\Users\kebl7595\Desktop\CFD\Runs\Flap\21 degree\project1.cas.h5" in NODE0 mode and compression level 1 ...
       24072 cells,     1 zone  ...
       80918 faces,     7 zones ...
       33000 nodes,     1 zone  ...
  Done.
Done.

Writing to Engs-30669:"C:\Users\kebl7595\Desktop\CFD\Runs\Flap\21 degree\project1.dat.h5" in NODE0 mode and compression level 1 ...
  Writing results.
Done.

> /file/export/ascii "./surface.dat" wing () no pressure mach-number quit no

Writing "./surface.dat"...

Writing information to ascii file ...
Done.


> /report/forces/wall-forces y -0.35837 -0.93358 0 y "Lift"

> /report/forces/wall-forces y 0.93358 -0.35837 0 y "Drag"

> ;/exit

> /exit y

Posting ANSYS Product Improvement Program performance data 
Done.
Auto-Transcript Stop Time:  10:25:05, 22 May 2024 GMT Daylight Time 
Total Transcript Time: 15 Minute 18 Second.
