Auto-Transcript Start Time:  10:15:41, 21 May 2024 GMT Daylight Time 
Current Directory: "C:\Users\kebl7595\Desktop\CFD\Runs\Viscous\fine"

              Welcome to ANSYS Fluent 2023 R1

              Copyright 1987-2023 ANSYS, Inc. All Rights Reserved.
              Unauthorized use, distribution or duplication is prohibited.
              This product is subject to U.S. laws governing export and re-export.
              For full Legal Notice, see documentation.

Build Time: Nov 28 2022 09:52:02 EST  Build Id: 10208  
 
Connected License Server List:	1055@ansyslic.eng.ox.ac.uk

*********************************************
Info: Your license enables 4-way parallel execution.
For faster simulations, please start the application with the appropriate parallel options.
*********************************************


     --------------------------------------------------------------
     This is an academic version of ANSYS FLUENT. Usage of this product
     license is limited to the terms and conditions specified in your ANSYS
     license form, additional terms section.
     --------------------------------------------------------------
Host spawning Node 0 on machine "Engs-30669" (win64).

------------------------------------------------------------------------------------
ID    Hostname    Core  O.S.         PID    Vendor                                 
------------------------------------------------------------------------------------
n0    Engs-30669  1/32  Windows-x64  48028  13th Gen Intel(R) Core(TM) i9-13900    
host  Engs-30669        Windows-x64  24128  13th Gen Intel(R) Core(TM) i9-13900    

MPI Option Selected: intel
------------------------------------------------------------------------------------

Cleanup script file is C:\\Users\\kebl7595\\Desktop\\CFD\\Runs\\Viscous\\fine\\cleanup-fluent-Engs-30669-24128.bat
QA Service Message :
QA Services Agreement Enabled. This application is included in the scope of an ANSYS QA Services Agreement.
Posting ANSYS Product Improvement Program startup data
Done.

Reading journal file C:/Users/kebl7595/Desktop/CFD/Runs/Viscous/fine/project1.jou...

> /file/set-batch-options no no no 

> 
define/                 parametric-study/       solve/
display/                plot/                   surface/
exit                    preferences/            switch-to-meshing-mode
file/                   print-license-usage     turbo-workflow/
mesh/                   report/                 views/
parallel/               server/

> /file/import/cgns/mesh  "./project1.cgns"
Engs-30669 has other FLUENT parallel processes running.                       Process affinity not being set.

Importing "./project1.cgns"

Opening library "C:\\PROGRA~1\\ANSYSI~1\\v231\\fluent\\fluent23.1.0\\vki\\win64\\devtools4.4.6.dll"... done.

Read    23948 nodes
   17466 hexahedral cells, zone  1
   12628 quadrilateral wall faces, zone  2.
   45781 quadrilateral interior faces, zone  3.
     300 quadrilateral interface faces, zone  4.
       6 quadrilateral wall faces, zone  5.

Building...
     mesh
     materials,
     interface,
     domains,
     zones,
	default_exterior-1
	interface-default_subface
	default_interior-1
	default_subface
	default
     parallel,
The automatic selection for flux type has changed to Rhie-Chow: momentum based.

Done.


> 
adjoint/                parallel/               server/
define/                 parametric-study/       solve/
display/                plot/                   surface/
exit                    preferences/            turbo-workflow/
file/                   print-license-usage     views/
mesh/                   report/

> /define/models/solver/density-based-implicit yes

> 
adjoint/                parallel/               server/
define/                 parametric-study/       solve/
display/                plot/                   surface/
exit                    preferences/            turbo-workflow/
file/                   print-license-usage     views/
mesh/                   report/

> /define/models/energy? yes yes invalid command [yes]
yes

> /define/models/viscous/kw-standard? yes

> 
adjoint/                parallel/               server/
define/                 parametric-study/       solve/
display/                plot/                   surface/
exit                    preferences/            turbo-workflow/
file/                   print-license-usage     views/
mesh/                   report/

> /define/materials/change-create air air air is a fluid
yes 
Density
ideal-gas no data required.

no no no no no no

> 
adjoint/                parallel/               server/
define/                 parametric-study/       solve/
display/                plot/                   surface/
exit                    preferences/            turbo-workflow/
file/                   print-license-usage     views/
mesh/                   report/

> /mesh/modify-zones/sep-face-zone-angle 2 90 yes

 5822 faces in contiguous region 0
 312 faces in contiguous region 1
 426 faces in contiguous region 2
 5822 faces in contiguous region 3
 246 faces in contiguous region 4
 Separates zone 2 into 5 zone(s).
Updating new zone information...
   created new zone default_subface:010 from default_subface
   created new zone default_subface:009 from default_subface
   created new zone default_subface:008 from default_subface
   created new zone default_subface:007 from default_subface
done.

> 
adjoint/                parallel/               server/
define/                 parametric-study/       solve/
display/                plot/                   surface/
exit                    preferences/            turbo-workflow/
file/                   print-license-usage     views/
mesh/                   report/

> /define/boundary-conditions/zone-name  5   te

> /define/boundary-conditions/zone-name  7 wing

> /define/boundary-conditions/zone-name  2 sym1

> /define/boundary-conditions/zone-name  9 sym2

> 
adjoint/                parallel/               server/
define/                 parametric-study/       solve/
display/                plot/                   surface/
exit                    preferences/            turbo-workflow/
file/                   print-license-usage     views/
mesh/                   report/

> /define/boundary-conditions/zone-name  8 far1

> /define/boundary-conditions/zone-name 10 far2

> 
adjoint/                parallel/               server/
define/                 parametric-study/       solve/
display/                plot/                   surface/
exit                    preferences/            turbo-workflow/
file/                   print-license-usage     views/
mesh/                   report/

> /define/boundary-conditions/zone-type  8 pressure-far-field

> /define/boundary-conditions/zone-type 10 pressure-far-field

> /define/boundary-conditions/zone-type  2 symmetry

> /define/boundary-conditions/zone-type  9 symmetry

> 
adjoint/                parallel/               server/
define/                 parametric-study/       solve/
display/                plot/                   surface/
exit                    preferences/            turbo-workflow/
file/                   print-license-usage     views/
mesh/                   report/

> /define/boundary-conditions/pressure-far-field (far2 far1)
far1 no 0 no 0.1 no 300 yes no 0.984808 no 0.173648 no 0. no yes 5 0.02

> /define/boundary-conditions/pressure-far-field (far2 far1)
far2 no 0 no 0.1 no 300 yes no 0.984808 no 0.173648 no 0. no yes 5 0.02

> 
adjoint/                parallel/               server/
define/                 parametric-study/       solve/
display/                plot/                   surface/
exit                    preferences/            turbo-workflow/
file/                   print-license-usage     views/
mesh/                   report/

> /solve/initialize/compute-defaults/pressure-far-field (far2 far1)
far1

> /solve/initialize/initialize-flow

> 
adjoint/                parallel/               server/
define/                 parametric-study/       solve/
display/                plot/                   surface/
exit                    preferences/            turbo-workflow/
file/                   print-license-usage     views/
mesh/                   report/

> /solve/monitors/residual/convergence-criteria 1.e-9 1.e-9 1.e-9 1.e-9 1.e-9 1.e-9 1.e-9

> /solve/iterate 2000

  iter  continuity  x-velocity  y-velocity  z-velocity      energy           k       omega     time/iter
     1  1.0000e+00  1.0000e+00  1.0000e+00  1.0000e+00  1.0000e+00  1.5300e-01  1.2073e-01  0:00:00 1999
     2  5.3502e-01  3.8216e-01  4.5204e-01  1.0000e+00  5.3576e-01  1.1850e-01  9.2545e-02  0:33:18 1998
     3  3.1753e-01  1.9761e-01  2.4128e-01  6.8863e-01  3.1785e-01  9.4562e-02  7.5877e-02  0:26:38 1997
     4  2.1533e-01  1.6506e-01  1.6946e-01  3.9239e-01  2.1548e-01  7.7537e-02  6.3833e-02  0:21:17 1996
     5  1.6204e-01  1.5029e-01  1.2583e-01  4.1372e-01  1.6213e-01  6.5868e-02  5.4968e-02  0:17:01 1995
     6  1.3024e-01  1.2076e-01  9.3980e-02  5.8918e-01  1.3031e-01  5.7197e-02  4.8271e-02  0:13:37 1994
     7  1.0872e-01  9.1273e-02  7.1140e-02  6.0476e-01  1.0879e-01  5.0240e-02  4.3058e-02  0:10:53 1993
     8  9.1737e-02  7.0782e-02  5.4926e-02  5.4035e-01  9.1807e-02  4.4487e-02  3.8745e-02  0:08:42 1992
     9  7.8292e-02  5.7001e-02  4.3481e-02  4.8966e-01  7.8361e-02  3.9672e-02  3.5061e-02  0:06:58 1991
    10  6.7780e-02  4.6333e-02  3.5502e-02  4.5244e-01  6.7847e-02  3.5615e-02  3.1896e-02  0:12:12 1990
    11  5.9272e-02  3.8463e-02  2.9894e-02  4.2374e-01  5.9335e-02  3.2193e-02  2.9158e-02  0:09:45 1989

  iter  continuity  x-velocity  y-velocity  z-velocity      energy           k       omega     time/iter
    12  5.2226e-02  3.3575e-02  2.5912e-02  3.9612e-01  5.2284e-02  2.9341e-02  2.6772e-02  0:07:48 1988
    13  4.6401e-02  3.0640e-02  2.3040e-02  3.6976e-01  4.6453e-02  2.6927e-02  2.4717e-02  0:06:14 1987
    14  4.1695e-02  2.9087e-02  2.0875e-02  3.4733e-01  4.1742e-02  2.4846e-02  2.2927e-02  0:04:59 1986
    15  3.7934e-02  2.8263e-02  1.9224e-02  3.3122e-01  3.7977e-02  2.3017e-02  2.1344e-02  0:03:59 1985
    16  3.5009e-02  2.8034e-02  1.7881e-02  3.2382e-01  3.5048e-02  2.1408e-02  1.9934e-02  0:03:11 1984
    17  3.2804e-02  2.8041e-02  1.6804e-02  3.2749e-01  3.2840e-02  1.9988e-02  1.8694e-02  0:09:10 1983
    18  3.1231e-02  2.8231e-02  1.5912e-02  3.4368e-01  3.1264e-02  1.8718e-02  1.7587e-02  0:07:19 1982
    19  3.0225e-02  2.8689e-02  1.5170e-02  3.7249e-01  3.0255e-02  1.7582e-02  1.6584e-02  0:05:51 1981
    20  2.9732e-02  2.9157e-02  1.4658e-02  4.1200e-01  2.9758e-02  1.6562e-02  1.5677e-02  0:04:41 1980
    21  2.9700e-02  2.9684e-02  1.4336e-02  4.5946e-01  2.9724e-02  1.5645e-02  1.4853e-02  0:03:45 1979
    22  3.0085e-02  3.0302e-02  1.4177e-02  5.1098e-01  3.0107e-02  1.4812e-02  1.4098e-02  0:03:00 1978

  iter  continuity  x-velocity  y-velocity  z-velocity      energy           k       omega     time/iter
    23  3.0838e-02  3.1005e-02  1.4137e-02  5.6231e-01  3.0858e-02  1.4049e-02  1.3399e-02  0:02:24 1977
    24  3.1918e-02  3.1722e-02  1.4243e-02  6.0992e-01  3.1936e-02  1.3345e-02  1.2756e-02  0:01:55 1976
    25  3.3310e-02  3.2784e-02  1.4356e-02  6.5086e-01  3.3327e-02  1.2693e-02  1.2162e-02  0:01:32 1975
    26  3.4974e-02  3.4077e-02  1.4508e-02  6.8200e-01  3.4989e-02  1.2083e-02  1.1606e-02  0:07:48 1974
    27  3.6864e-02  3.5580e-02  1.4673e-02  7.0144e-01  3.6878e-02  1.1516e-02  1.1092e-02  0:06:14 1973
    28  3.8927e-02  3.7219e-02  1.4884e-02  7.0731e-01  3.8939e-02  1.0987e-02  1.0613e-02  0:04:59 1972
    29  4.1108e-02  3.8957e-02  1.5177e-02  6.9878e-01  4.1117e-02  1.0492e-02  1.0161e-02  0:03:59 1971
    30  4.3343e-02  4.0737e-02  1.5576e-02  6.7433e-01  4.3348e-02  1.0035e-02  9.7360e-03  0:03:11 1970
    31  4.5567e-02  4.2470e-02  1.6117e-02  6.4080e-01  4.5567e-02  9.6078e-03  9.3396e-03  0:02:33 1969
    32  4.7712e-02  4.4085e-02  1.6823e-02  5.9910e-01  4.7707e-02  9.2093e-03  8.9674e-03  0:02:02 1968
    33  4.9722e-02  4.5538e-02  1.7712e-02  5.4784e-01  4.9709e-02  8.8409e-03  8.6211e-03  0:01:38 1967

  iter  continuity  x-velocity  y-velocity  z-velocity      energy           k       omega     time/iter
    34  5.1548e-02  4.6823e-02  1.8731e-02  4.9388e-01  5.1527e-02  8.5016e-03  8.2854e-03  0:01:18 1966
    35  5.3140e-02  4.7819e-02  1.9870e-02  4.4402e-01  5.3109e-02  8.1878e-03  7.9771e-03  0:01:03 1965
    36  5.4469e-02  4.8575e-02  2.1070e-02  4.0801e-01  5.4427e-02  7.8959e-03  7.6803e-03  0:07:23 1964
    37  5.5503e-02  4.9030e-02  2.2267e-02  3.9067e-01  5.5450e-02  7.6267e-03  7.3974e-03  0:05:54 1963
    38  5.6228e-02  4.9234e-02  2.3415e-02  4.0090e-01  5.6162e-02  7.3813e-03  7.1416e-03  0:04:43 1962
    39  5.6641e-02  4.9201e-02  2.4497e-02  4.2577e-01  5.6563e-02  7.1551e-03  6.9022e-03  0:03:46 1961
    40  5.6720e-02  4.8714e-02  2.5530e-02  4.6940e-01  5.6628e-02  6.9462e-03  6.6705e-03  0:03:01 1960
    41  5.6475e-02  4.8062e-02  2.6408e-02  4.9808e-01  5.6369e-02  6.7572e-03  6.4484e-03  0:02:25 1959
    42  5.5916e-02  4.7211e-02  2.7171e-02  5.2614e-01  5.5798e-02  6.5848e-03  6.2300e-03  0:01:56 1958
    43  5.5045e-02  4.6013e-02  2.7834e-02  5.5188e-01  5.4914e-02  6.4260e-03  6.0272e-03  0:01:33 1957
    44  5.3885e-02  4.4689e-02  2.8378e-02  5.7076e-01  5.3742e-02  6.2815e-03  5.8408e-03  0:01:14 1956

  iter  continuity  x-velocity  y-velocity  z-velocity      energy           k       omega     time/iter
    45  5.2455e-02  4.3285e-02  2.8836e-02  5.8418e-01  5.2302e-02  6.1488e-03  5.6666e-03  0:00:59 1955
    46  5.0769e-02  4.1804e-02  2.9245e-02  5.9272e-01  5.0607e-02  6.0310e-03  5.4943e-03  0:07:18 1954
    47  4.8849e-02  4.0253e-02  2.9610e-02  5.9743e-01  4.8678e-02  5.9553e-03  5.3435e-03  0:05:50 1953
    48  4.6717e-02  3.8799e-02  2.9958e-02  5.9625e-01  4.6539e-02  5.8435e-03  5.1670e-03  0:04:40 1952
    49  4.4396e-02  3.7567e-02  3.0303e-02  5.8934e-01  4.4212e-02  5.7490e-03  5.0088e-03  0:03:44 1951
    50  4.1919e-02  3.6550e-02  3.0722e-02  5.7740e-01  4.1731e-02  5.6662e-03  4.8550e-03  0:02:59 1950
    51  3.9294e-02  3.5769e-02  3.1222e-02  5.6115e-01  3.9103e-02  5.5908e-03  4.7091e-03  0:02:23 1949
    52  3.6555e-02  3.5501e-02  3.1788e-02  5.4319e-01  3.6363e-02  5.5259e-03  4.5782e-03  0:01:54 1948
    53  3.3728e-02  3.5779e-02  3.2447e-02  5.2624e-01  3.3536e-02  5.4660e-03  4.4720e-03  0:01:32 1947
    54  3.0844e-02  3.6594e-02  3.3208e-02  5.1139e-01  3.0654e-02  5.4101e-03  4.3678e-03  0:01:13 1946
    55  2.7926e-02  3.7864e-02  3.4089e-02  4.9915e-01  2.7739e-02  5.3613e-03  4.2587e-03  0:07:28 1945

  iter  continuity  x-velocity  y-velocity  z-velocity      energy           k       omega     time/iter
    56  2.5009e-02  3.9547e-02  3.5102e-02  4.9033e-01  2.4826e-02  5.3152e-03  4.1739e-03  0:05:58 1944
    57  2.2130e-02  4.1578e-02  3.6221e-02  4.8456e-01  2.1953e-02  5.2730e-03  4.1059e-03  0:04:46 1943
    58  1.9332e-02  4.3848e-02  3.7429e-02  4.8113e-01  1.9162e-02  5.2343e-03  4.0373e-03  0:03:49 1942
    59  1.6667e-02  4.6259e-02  3.8716e-02  4.7980e-01  1.6506e-02  5.1933e-03  3.9708e-03  0:03:03 1941
    60  1.4213e-02  4.8695e-02  4.0086e-02  4.7897e-01  1.4063e-02  5.1556e-03  3.8935e-03  0:02:26 1940
    61  1.2079e-02  5.1139e-02  4.1489e-02  4.7814e-01  1.1946e-02  5.1178e-03  3.8044e-03  0:01:57 1939
    62  1.0431e-02  5.3489e-02  4.2915e-02  4.7666e-01  1.0321e-02  5.1105e-03  3.7454e-03  0:01:34 1938
    63  9.4464e-03  5.5644e-02  4.4338e-02  4.7477e-01  9.3669e-03  5.0367e-03  3.6374e-03  0:01:15 1937
    64  9.2325e-03  5.7592e-02  4.5706e-02  4.7157e-01  9.1881e-03  4.9820e-03  3.5435e-03  0:07:27 1936
    65  9.7317e-03  5.9305e-02  4.6984e-02  4.6661e-01  9.7187e-03  4.9238e-03  3.4536e-03  0:05:57 1935
    66  1.0747e-02  6.0768e-02  4.8127e-02  4.6021e-01  1.0757e-02  4.8741e-03  3.3726e-03  0:04:46 1934

  iter  continuity  x-velocity  y-velocity  z-velocity      energy           k       omega     time/iter
    67  1.2040e-02  6.1995e-02  4.9086e-02  4.5207e-01  1.2063e-02  4.8239e-03  3.2862e-03  0:03:49 1933
    68  1.3438e-02  6.2924e-02  4.9858e-02  4.4180e-01  1.3470e-02  4.7739e-03  3.2025e-03  0:03:03 1932
    69  1.4829e-02  6.3505e-02  5.0438e-02  4.2774e-01  1.4865e-02  4.7336e-03  3.1310e-03  0:02:26 1931
    70  1.6139e-02  6.3758e-02  5.0799e-02  4.1166e-01  1.6177e-02  4.6964e-03  3.0585e-03  0:01:57 1930
    71  1.7331e-02  6.3720e-02  5.0917e-02  3.9603e-01  1.7368e-02  4.6584e-03  2.9988e-03  0:01:33 1929
    72  1.8381e-02  6.3404e-02  5.0789e-02  3.8033e-01  1.8418e-02  4.6243e-03  2.9363e-03  0:01:15 1928
    73  1.9279e-02  6.2804e-02  5.0425e-02  3.6633e-01  1.9315e-02  4.5947e-03  2.8728e-03  0:01:00 1927
    74  2.0018e-02  6.1963e-02  4.9823e-02  3.5440e-01  2.0052e-02  4.5681e-03  2.8103e-03  0:07:13 1926
    75  2.0590e-02  6.0767e-02  4.9045e-02  3.4651e-01  2.0623e-02  4.5455e-03  2.7681e-03  0:05:46 1925
    76  2.1007e-02  5.9344e-02  4.8067e-02  3.4252e-01  2.1039e-02  4.5342e-03  2.7300e-03  0:04:37 1924
    77  2.1275e-02  5.7690e-02  4.6918e-02  3.4232e-01  2.1305e-02  4.5328e-03  2.6934e-03  0:03:41 1923

  iter  continuity  x-velocity  y-velocity  z-velocity      energy           k       omega     time/iter
    78  2.1394e-02  5.5886e-02  4.5591e-02  3.4723e-01  2.1423e-02  4.5419e-03  2.6798e-03  0:02:57 1922
    79  2.1379e-02  5.3855e-02  4.4142e-02  3.5704e-01  2.1406e-02  4.5620e-03  2.6589e-03  0:02:21 1921
    80  2.1229e-02  5.1514e-02  4.2620e-02  3.7259e-01  2.1254e-02  4.5857e-03  2.6561e-03  0:01:53 1920
    81  2.0966e-02  4.9232e-02  4.0944e-02  3.9171e-01  2.0990e-02  4.6102e-03  2.6510e-03  0:01:30 1919
    82  2.0600e-02  4.6972e-02  3.9138e-02  4.1339e-01  2.0623e-02  4.6321e-03  2.6230e-03  0:01:12 1918
    83  2.0138e-02  4.4676e-02  3.7253e-02  4.3651e-01  2.0158e-02  4.6549e-03  2.6091e-03  0:00:58 1917
    84  1.9584e-02  4.2305e-02  3.5333e-02  4.6007e-01  1.9602e-02  4.6777e-03  2.6012e-03  0:07:09 1916
    85  1.8944e-02  3.9889e-02  3.3388e-02  4.8216e-01  1.8961e-02  4.7038e-03  2.5825e-03  0:05:43 1915
    86  1.8228e-02  3.7471e-02  3.1412e-02  5.0223e-01  1.8243e-02  4.7317e-03  2.5872e-03  0:04:35 1914
    87  1.7442e-02  3.5084e-02  2.9421e-02  5.1972e-01  1.7455e-02  4.7560e-03  2.5886e-03  0:03:40 1913
    88  1.6593e-02  3.2744e-02  2.7428e-02  5.3442e-01  1.6604e-02  4.7749e-03  2.5871e-03  0:02:56 1912

  iter  continuity  x-velocity  y-velocity  z-velocity      energy           k       omega     time/iter
    89  1.5689e-02  3.0464e-02  2.5440e-02  5.4574e-01  1.5698e-02  4.7887e-03  2.5758e-03  0:02:20 1911
    90  1.4740e-02  2.8296e-02  2.3459e-02  5.5552e-01  1.4747e-02  4.7964e-03  2.5596e-03  0:01:52 1910
    91  1.3757e-02  2.6268e-02  2.1491e-02  5.6250e-01  1.3761e-02  4.7975e-03  2.5491e-03  0:01:30 1909
    92  1.2752e-02  2.4358e-02  1.9560e-02  5.6249e-01  1.2752e-02  4.8309e-03  2.5633e-03  0:01:12 1908
    93  1.1736e-02  2.2620e-02  1.7661e-02  5.5534e-01  1.1734e-02  4.8123e-03  2.5406e-03  0:07:19 1907
    94  1.0729e-02  2.1080e-02  1.5813e-02  5.4308e-01  1.0723e-02  4.7991e-03  2.5182e-03  0:05:51 1906
    95  9.7555e-03  1.9759e-02  1.4031e-02  5.2623e-01  9.7455e-03  4.7852e-03  2.4989e-03  0:04:41 1905
    96  8.8468e-03  1.8686e-02  1.2323e-02  5.0564e-01  8.8325e-03  4.7676e-03  2.4753e-03  0:03:44 1904
    97  8.0453e-03  1.7894e-02  1.0700e-02  4.8132e-01  8.0260e-03  4.7413e-03  2.4678e-03  0:02:59 1903
    98  7.4027e-03  1.7390e-02  9.1899e-03  4.5587e-01  7.3781e-03  4.7112e-03  2.4503e-03  0:02:23 1902
    99  6.9759e-03  1.7169e-02  7.8189e-03  4.2949e-01  6.9460e-03  4.6803e-03  2.4171e-03  0:01:55 1901

  iter  continuity  x-velocity  y-velocity  z-velocity      energy           k       omega     time/iter
   100  6.8167e-03  1.7215e-02  6.6273e-03  4.0407e-01  6.7822e-03  4.6499e-03  2.3883e-03  0:01:32 1900
   101  6.9471e-03  1.7507e-02  5.6656e-03  3.8033e-01  6.9092e-03  4.6202e-03  2.3597e-03  0:01:13 1899
   102  7.3528e-03  1.8000e-02  5.0242e-03  3.5988e-01  7.3129e-03  4.5895e-03  2.3295e-03  0:00:59 1898
   103  7.9922e-03  1.8618e-02  4.7618e-03  3.4416e-01  7.9513e-03  4.5676e-03  2.2896e-03  0:07:06 1897
   104  8.8093e-03  1.9336e-02  4.8558e-03  3.3289e-01  8.7678e-03  4.5477e-03  2.2507e-03  0:05:41 1896
   105  9.7524e-03  2.0129e-02  5.2285e-03  3.2755e-01  9.7102e-03  4.5320e-03  2.2209e-03  0:04:33 1895
   106  1.0781e-02  2.0975e-02  5.7808e-03  3.2875e-01  1.0737e-02  4.5282e-03  2.1944e-03  0:03:38 1894
   107  1.1863e-02  2.1848e-02  6.4296e-03  3.3525e-01  1.1819e-02  4.5290e-03  2.1647e-03  0:02:54 1893
   108  1.2976e-02  2.2720e-02  7.1150e-03  3.4543e-01  1.2930e-02  4.5389e-03  2.1363e-03  0:02:19 1892
   109  1.4102e-02  2.3571e-02  7.8021e-03  3.5794e-01  1.4053e-02  4.5716e-03  2.1020e-03  0:01:51 1891
   110  1.5227e-02  2.4387e-02  8.4652e-03  3.7154e-01  1.5176e-02  4.6076e-03  2.0660e-03  0:01:29 1890

  iter  continuity  x-velocity  y-velocity  z-velocity      energy           k       omega     time/iter
   111  1.6340e-02  2.5150e-02  9.0908e-03  3.8434e-01  1.6286e-02  4.6407e-03  2.0282e-03  0:01:11 1889
   112  1.7431e-02  2.5849e-02  9.6661e-03  3.9543e-01  1.7374e-02  4.6867e-03  1.9955e-03  0:07:15 1888
   113  1.8492e-02  2.6474e-02  1.0184e-02  4.0407e-01  1.8431e-02  4.7309e-03  1.9670e-03  0:05:47 1887
   114  1.9514e-02  2.7010e-02  1.0646e-02  4.0965e-01  1.9449e-02  4.7763e-03  1.9380e-03  0:04:38 1886
   115  2.0493e-02  2.7442e-02  1.1054e-02  4.1259e-01  2.0423e-02  4.8233e-03  1.9051e-03  0:03:42 1885
   116  2.1420e-02  2.7797e-02  1.1379e-02  4.1252e-01  2.1346e-02  4.8660e-03  1.8806e-03  0:02:58 1884
   117  2.2290e-02  2.8050e-02  1.1624e-02  4.0917e-01  2.2211e-02  4.8937e-03  1.8553e-03  0:02:22 1883
   118  2.3097e-02  2.8193e-02  1.1806e-02  4.0284e-01  2.3013e-02  4.9099e-03  1.8286e-03  0:01:54 1882
   119  2.3832e-02  2.8217e-02  1.1917e-02  3.9393e-01  2.3743e-02  4.9202e-03  1.8031e-03  0:01:31 1881
   120  2.4489e-02  2.8123e-02  1.1956e-02  3.8328e-01  2.4394e-02  4.9260e-03  1.7710e-03  0:01:13 1880
   121  2.5063e-02  2.7906e-02  1.1924e-02  3.7076e-01  2.4963e-02  4.9346e-03  1.7451e-03  0:07:14 1879

  iter  continuity  x-velocity  y-velocity  z-velocity      energy           k       omega     time/iter
   122  2.5547e-02  2.7565e-02  1.1819e-02  3.5604e-01  2.5442e-02  4.9320e-03  1.7238e-03  0:05:47 1878
   123  2.5938e-02  2.7102e-02  1.1648e-02  3.4095e-01  2.5828e-02  4.9212e-03  1.7049e-03  0:04:37 1877
   124  2.6228e-02  2.6522e-02  1.1420e-02  3.2613e-01  2.6112e-02  4.9110e-03  1.6785e-03  0:03:42 1876
   125  2.6408e-02  2.5777e-02  1.1153e-02  3.1299e-01  2.6287e-02  4.8951e-03  1.6651e-03  0:02:57 1875
   126  2.6472e-02  2.4917e-02  1.0796e-02  3.0086e-01  2.6346e-02  4.8730e-03  1.6492e-03  0:02:22 1874
   127  2.6415e-02  2.3977e-02  1.0371e-02  2.8951e-01  2.6285e-02  4.8425e-03  1.6368e-03  0:01:53 1873
   128  2.6234e-02  2.2972e-02  9.9314e-03  2.7859e-01  2.6100e-02  4.8041e-03  1.6252e-03  0:01:31 1872
   129  2.5925e-02  2.1902e-02  9.4869e-03  2.6864e-01  2.5788e-02  4.7632e-03  1.6273e-03  0:01:12 1871
   130  2.5488e-02  2.0787e-02  9.0917e-03  2.6114e-01  2.5347e-02  4.7218e-03  1.6317e-03  0:07:12 1870
   131  2.4918e-02  1.9667e-02  8.7922e-03  2.5518e-01  2.4775e-02  4.7131e-03  1.6646e-03  0:05:45 1869
   132  2.4215e-02  1.8583e-02  8.5658e-03  2.5164e-01  2.4069e-02  4.6447e-03  1.6598e-03  0:04:36 1868

  iter  continuity  x-velocity  y-velocity  z-velocity      energy           k       omega     time/iter
   133  2.3385e-02  1.7589e-02  8.5727e-03  2.5027e-01  2.3237e-02  4.5862e-03  1.6605e-03  0:03:41 1867
   134  2.2429e-02  1.6751e-02  8.8295e-03  2.5041e-01  2.2280e-02  4.5253e-03  1.6790e-03  0:02:57 1866
   135  2.1351e-02  1.6128e-02  9.3835e-03  2.5140e-01  2.1203e-02  4.4676e-03  1.6838e-03  0:02:21 1865
   136  2.0159e-02  1.5806e-02  1.0237e-02  2.5272e-01  2.0010e-02  4.4080e-03  1.6800e-03  0:01:53 1864
   137  1.8855e-02  1.5831e-02  1.1327e-02  2.5433e-01  1.8708e-02  4.3445e-03  1.6763e-03  0:01:30 1863
   138  1.7446e-02  1.6224e-02  1.2614e-02  2.5563e-01  1.7301e-02  4.2802e-03  1.6376e-03  0:01:12 1862
   139  1.5951e-02  1.7084e-02  1.4058e-02  2.5645e-01  1.5809e-02  4.2156e-03  1.6028e-03  0:07:10 1861
   140  1.4386e-02  1.8329e-02  1.5650e-02  2.5639e-01  1.4248e-02  4.1489e-03  1.5868e-03  0:05:44 1860
   141  1.2772e-02  1.9864e-02  1.7352e-02  2.5435e-01  1.2639e-02  4.0793e-03  1.5686e-03  0:04:35 1859
   142  1.1133e-02  2.1666e-02  1.9119e-02  2.5076e-01  1.1006e-02  4.0109e-03  1.5521e-03  0:03:40 1858
   143  9.5006e-03  2.3653e-02  2.0915e-02  2.4569e-01  9.3819e-03  3.9431e-03  1.5402e-03  0:02:56 1857

  iter  continuity  x-velocity  y-velocity  z-velocity      energy           k       omega     time/iter
   144  7.9235e-03  2.5759e-02  2.2709e-02  2.3938e-01  7.8161e-03  3.8727e-03  1.5346e-03  0:02:20 1856
   145  6.4732e-03  2.7931e-02  2.4470e-02  2.3155e-01  6.3825e-03  3.8066e-03  1.5220e-03  0:01:52 1855
   146  5.2691e-03  3.0139e-02  2.6170e-02  2.2221e-01  5.2043e-03  3.7443e-03  1.5149e-03  0:01:30 1854
   147  4.5029e-03  3.2422e-02  2.7754e-02  2.1232e-01  4.4768e-03  3.6847e-03  1.4999e-03  0:01:12 1853
   148  4.3875e-03  3.4631e-02  2.9255e-02  2.0215e-01  4.4056e-03  3.6243e-03  1.4833e-03  0:07:08 1852
   149  4.9188e-03  3.6742e-02  3.0640e-02  1.9154e-01  4.9693e-03  3.5698e-03  1.4748e-03  0:05:42 1851
   150  5.8715e-03  3.8755e-02  3.1875e-02  1.8138e-01  5.9377e-03  3.5168e-03  1.4624e-03  0:04:34 1850
   151  7.0272e-03  4.0664e-02  3.2944e-02  1.7248e-01  7.0984e-03  3.4644e-03  1.4457e-03  0:03:39 1849
   152  8.2502e-03  4.2463e-02  3.3832e-02  1.6533e-01  8.3209e-03  3.4143e-03  1.4321e-03  0:02:55 1848
   153  9.4676e-03  4.4134e-02  3.4526e-02  1.6004e-01  9.5351e-03  3.3666e-03  1.4206e-03  0:02:20 1847
   154  1.0640e-02  4.5652e-02  3.5022e-02  1.5693e-01  1.0703e-02  3.3237e-03  1.4109e-03  0:01:52 1846

  iter  continuity  x-velocity  y-velocity  z-velocity      energy           k       omega     time/iter
   155  1.1743e-02  4.6995e-02  3.5320e-02  1.5606e-01  1.1800e-02  3.2933e-03  1.4051e-03  0:01:29 1845
   156  1.2763e-02  4.8145e-02  3.5428e-02  1.5768e-01  1.2814e-02  3.2652e-03  1.3907e-03  0:07:20 1844
   157  1.3690e-02  4.9119e-02  3.5337e-02  1.6127e-01  1.3735e-02  3.2427e-03  1.3768e-03  0:05:52 1843
   158  1.4518e-02  4.9899e-02  3.5050e-02  1.6621e-01  1.4556e-02  3.2240e-03  1.3682e-03  0:04:41 1842
   159  1.5245e-02  5.0486e-02  3.4589e-02  1.7264e-01  1.5277e-02  3.2118e-03  1.3633e-03  0:03:45 1841
   160  1.5869e-02  5.0862e-02  3.3960e-02  1.8034e-01  1.5894e-02  3.2072e-03  1.3592e-03  0:03:00 1840
   161  1.6391e-02  5.1042e-02  3.3183e-02  1.8858e-01  1.6410e-02  3.2073e-03  1.3510e-03  0:02:24 1839
   162  1.6812e-02  5.1017e-02  3.2266e-02  1.9693e-01  1.6825e-02  3.1981e-03  1.3455e-03  0:01:55 1838
   163  1.7133e-02  5.0769e-02  3.1219e-02  2.0504e-01  1.7139e-02  3.1947e-03  1.3440e-03  0:01:32 1837
   164  1.7358e-02  5.0329e-02  3.0081e-02  2.1258e-01  1.7358e-02  3.1971e-03  1.3436e-03  0:07:21 1836
   165  1.7491e-02  4.9720e-02  2.8878e-02  2.1955e-01  1.7485e-02  3.2073e-03  1.3528e-03  0:05:52 1835

  iter  continuity  x-velocity  y-velocity  z-velocity      energy           k       omega     time/iter
   166  1.7534e-02  4.8929e-02  2.7617e-02  2.2570e-01  1.7522e-02  3.2133e-03  1.3612e-03  0:04:42 1834
   167  1.7487e-02  4.7936e-02  2.6300e-02  2.3109e-01  1.7469e-02  3.2181e-03  1.3541e-03  0:03:45 1833
   168  1.7355e-02  4.6766e-02  2.4952e-02  2.3561e-01  1.7331e-02  3.2298e-03  1.3596e-03  0:03:00 1832
   169  1.7141e-02  4.5488e-02  2.3616e-02  2.3927e-01  1.7112e-02  3.2484e-03  1.3637e-03  0:02:24 1831
   170  1.6848e-02  4.4090e-02  2.2315e-02  2.4157e-01  1.6814e-02  3.2605e-03  1.3766e-03  0:01:55 1830
   171  1.6479e-02  4.2584e-02  2.1056e-02  2.4309e-01  1.6441e-02  3.2696e-03  1.3716e-03  0:01:32 1829
   172  1.6036e-02  4.0960e-02  1.9864e-02  2.4349e-01  1.5993e-02  3.2795e-03  1.3773e-03  0:07:19 1828
   173  1.5524e-02  3.9231e-02  1.8795e-02  2.4301e-01  1.5478e-02  3.2968e-03  1.3913e-03  0:05:51 1827
   174  1.4944e-02  3.7403e-02  1.7887e-02  2.4185e-01  1.4894e-02  3.3148e-03  1.4074e-03  0:04:41 1826
   175  1.4304e-02  3.5638e-02  1.7052e-02  2.3964e-01  1.4251e-02  3.3325e-03  1.4260e-03  0:03:45 1825
   176  1.3608e-02  3.3960e-02  1.6319e-02  2.3598e-01  1.3552e-02  3.3529e-03  1.4407e-03  0:03:00 1824

  iter  continuity  x-velocity  y-velocity  z-velocity      energy           k       omega     time/iter
   177  1.2858e-02  3.2282e-02  1.5757e-02  2.3160e-01  1.2799e-02  3.3750e-03  1.4667e-03  0:02:24 1823
   178  1.2055e-02  3.0680e-02  1.5360e-02  2.2850e-01  1.1994e-02  3.3927e-03  1.4642e-03  0:01:55 1822
   179  1.1204e-02  2.9106e-02  1.5148e-02  2.2449e-01  1.1142e-02  3.4362e-03  1.4944e-03  0:01:32 1821
   180  1.0314e-02  2.7645e-02  1.5071e-02  2.1975e-01  1.0251e-02  3.4406e-03  1.4928e-03  0:01:13 1820
   181  9.3836e-03  2.6156e-02  1.5179e-02  2.1445e-01  9.3198e-03  3.4538e-03  1.4942e-03  0:07:02 1819
   182  8.4246e-03  2.4915e-02  1.5432e-02  2.0876e-01  8.3610e-03  3.4664e-03  1.4960e-03  0:05:38 1818
   183  7.4700e-03  2.4086e-02  1.5610e-02  2.0262e-01  7.4073e-03  3.4747e-03  1.4968e-03  0:04:30 1817
   184  6.5342e-03  2.3661e-02  1.5775e-02  1.9611e-01  6.4733e-03  3.4803e-03  1.4951e-03  0:03:36 1816
   185  5.6329e-03  2.3375e-02  1.6026e-02  1.8960e-01  5.5754e-03  3.4923e-03  1.4935e-03  0:02:53 1815
   186  4.8029e-03  2.3236e-02  1.6333e-02  1.8349e-01  4.7512e-03  3.5011e-03  1.4880e-03  0:02:18 1814
   187  4.1030e-03  2.3175e-02  1.6677e-02  1.7728e-01  4.0611e-03  3.5072e-03  1.4798e-03  0:01:50 1813

  iter  continuity  x-velocity  y-velocity  z-velocity      energy           k       omega     time/iter
   188  3.6236e-03  2.3188e-02  1.7078e-02  1.7273e-01  3.5969e-03  3.5044e-03  1.4698e-03  0:01:28 1812
   189  3.4386e-03  2.3156e-02  1.7544e-02  1.6406e-01  3.4313e-03  3.5052e-03  1.4646e-03  0:01:11 1811
   190  3.6922e-03  2.3571e-02  1.7803e-02  1.5535e-01  3.7029e-03  3.5008e-03  1.4564e-03  0:06:58 1810
   191  4.2850e-03  2.4210e-02  1.7976e-02  1.4742e-01  4.3075e-03  3.4922e-03  1.4443e-03  0:05:35 1809
   192  5.0701e-03  2.4939e-02  1.8088e-02  1.4044e-01  5.0991e-03  3.4888e-03  1.4287e-03  0:04:27 1808
   193  5.9504e-03  2.5668e-02  1.8180e-02  1.3412e-01  5.9823e-03  3.4847e-03  1.4134e-03  0:03:34 1807
   194  6.8587e-03  2.6258e-02  1.8279e-02  1.2806e-01  6.8911e-03  3.4782e-03  1.4006e-03  0:02:51 1806
   195  7.7820e-03  2.6842e-02  1.8319e-02  1.2229e-01  7.8134e-03  3.4721e-03  1.3910e-03  0:02:17 1805
   196  8.6789e-03  2.7345e-02  1.8300e-02  1.1710e-01  8.7085e-03  3.4706e-03  1.3800e-03  0:01:49 1804
   197  9.5394e-03  2.7750e-02  1.8313e-02  1.1245e-01  9.5666e-03  3.4702e-03  1.3685e-03  0:01:27 1803
   198  1.0379e-02  2.8212e-02  1.8206e-02  1.0837e-01  1.0404e-02  3.4719e-03  1.3653e-03  0:07:10 1802

  iter  continuity  x-velocity  y-velocity  z-velocity      energy           k       omega     time/iter
   199  1.1171e-02  2.8560e-02  1.7996e-02  1.0487e-01  1.1191e-02  3.4687e-03  1.3635e-03  0:05:44 1801
   200  1.1901e-02  2.8817e-02  1.7717e-02  1.0204e-01  1.1918e-02  3.4686e-03  1.3582e-03  0:04:35 1800
   201  1.2555e-02  2.8940e-02  1.7399e-02  9.9905e-02  1.2568e-02  3.4753e-03  1.3552e-03  0:03:40 1799
   202  1.3142e-02  2.9013e-02  1.7038e-02  9.8423e-02  1.3151e-02  3.4776e-03  1.3507e-03  0:02:56 1798
   203  1.3650e-02  2.8978e-02  1.6618e-02  9.7829e-02  1.3655e-02  3.4788e-03  1.3499e-03  0:02:21 1797
   204  1.4072e-02  2.8812e-02  1.6145e-02  9.8203e-02  1.4073e-02  3.4813e-03  1.3548e-03  0:01:52 1796
   205  1.4401e-02  2.8509e-02  1.5622e-02  9.9596e-02  1.4398e-02  3.4970e-03  1.3644e-03  0:01:30 1795
   206  1.4637e-02  2.8111e-02  1.5053e-02  1.0192e-01  1.4629e-02  3.5254e-03  1.3637e-03  0:07:11 1794
   207  1.4771e-02  2.7624e-02  1.4439e-02  1.0520e-01  1.4759e-02  3.5476e-03  1.3517e-03  0:05:44 1793
   208  1.4816e-02  2.7049e-02  1.3798e-02  1.0935e-01  1.4801e-02  3.5675e-03  1.3386e-03  0:04:35 1792
   209  1.4769e-02  2.6369e-02  1.3125e-02  1.1425e-01  1.4750e-02  3.5934e-03  1.3309e-03  0:03:40 1791

  iter  continuity  x-velocity  y-velocity  z-velocity      energy           k       omega     time/iter
   210  1.4629e-02  2.5643e-02  1.2440e-02  1.1985e-01  1.4606e-02  3.6133e-03  1.3171e-03  0:02:56 1790
   211  1.4396e-02  2.4850e-02  1.1734e-02  1.2583e-01  1.4370e-02  3.6443e-03  1.3046e-03  0:02:21 1789
   212  1.4072e-02  2.3985e-02  1.1026e-02  1.3210e-01  1.4043e-02  3.6740e-03  1.2919e-03  0:01:53 1788
   213  1.3661e-02  2.3060e-02  1.0336e-02  1.3851e-01  1.3629e-02  3.6981e-03  1.2829e-03  0:01:30 1787
   214  1.3167e-02  2.2070e-02  9.6870e-03  1.4508e-01  1.3132e-02  3.7169e-03  1.2749e-03  0:01:12 1786
   215  1.2596e-02  2.1061e-02  9.1060e-03  1.5178e-01  1.2559e-02  3.7322e-03  1.2673e-03  0:06:55 1785
   216  1.1962e-02  2.0020e-02  8.6194e-03  1.5857e-01  1.1922e-02  3.7434e-03  1.2533e-03  0:05:31 1784
   217  1.1271e-02  1.8958e-02  8.2521e-03  1.6514e-01  1.1230e-02  3.7489e-03  1.2426e-03  0:04:25 1783
   218  1.0528e-02  1.7993e-02  7.8830e-03  1.7154e-01  1.0486e-02  3.7613e-03  1.2333e-03  0:03:32 1782
   219  9.7472e-03  1.7122e-02  7.7422e-03  1.7795e-01  9.7032e-03  3.8093e-03  1.2474e-03  0:02:49 1781
   220  8.9342e-03  1.6337e-02  7.7881e-03  1.8372e-01  8.8895e-03  3.7920e-03  1.2130e-03  0:02:15 1780

  iter  continuity  x-velocity  y-velocity  z-velocity      energy           k       omega     time/iter
   221  8.1000e-03  1.5664e-02  7.9974e-03  1.8847e-01  8.0550e-03  3.7847e-03  1.1933e-03  0:01:48 1779
   222  7.2596e-03  1.5130e-02  8.3421e-03  1.9271e-01  7.2148e-03  3.7748e-03  1.1827e-03  0:07:22 1778
   223  6.4265e-03  1.4764e-02  8.7804e-03  1.9599e-01  6.3824e-03  3.7666e-03  1.1758e-03  0:05:54 1777
   224  5.6225e-03  1.4603e-02  9.2917e-03  1.9790e-01  5.5799e-03  3.7548e-03  1.1743e-03  0:04:43 1776
   225  4.8716e-03  1.4595e-02  9.8650e-03  2.0127e-01  4.8316e-03  3.7352e-03  1.1765e-03  0:03:46 1775
   226  4.2059e-03  1.4754e-02  1.0456e-02  2.0328e-01  4.1699e-03  3.7095e-03  1.1919e-03  0:03:01 1774
   227  3.6704e-03  1.5077e-02  1.1036e-02  2.0449e-01  3.6406e-03  3.6790e-03  1.1986e-03  0:02:24 1773
   228  3.3166e-03  1.5531e-02  1.1591e-02  2.0469e-01  3.2956e-03  3.6447e-03  1.2028e-03  0:01:56 1772
   229  3.1864e-03  1.6083e-02  1.2103e-02  2.0425e-01  3.1759e-03  3.6034e-03  1.2025e-03  0:07:27 1771
   230  3.2689e-03  1.6670e-02  1.2549e-02  2.0260e-01  3.2685e-03  3.5594e-03  1.2059e-03  0:05:57 1770
   231  3.5272e-03  1.7254e-02  1.2926e-02  2.0029e-01  3.5349e-03  3.5151e-03  1.2032e-03  0:04:45 1769

  iter  continuity  x-velocity  y-velocity  z-velocity      energy           k       omega     time/iter
   232  3.8869e-03  1.7754e-02  1.3219e-02  1.9704e-01  3.9002e-03  3.4678e-03  1.2025e-03  0:03:48 1768
   233  4.3739e-03  1.8366e-02  1.3475e-02  1.9264e-01  4.3901e-03  3.4140e-03  1.1963e-03  0:03:03 1767
   234  4.8697e-03  1.8957e-02  1.3668e-02  1.8671e-01  4.8871e-03  3.3580e-03  1.1929e-03  0:02:26 1766
   235  5.3804e-03  1.9501e-02  1.3788e-02  1.8070e-01  5.3977e-03  3.3037e-03  1.1892e-03  0:01:57 1765
   236  5.8703e-03  1.9965e-02  1.3825e-02  1.7421e-01  5.8867e-03  3.2477e-03  1.1863e-03  0:01:33 1764
   237  6.3313e-03  2.0391e-02  1.3787e-02  1.6743e-01  6.3463e-03  3.1941e-03  1.1848e-03  0:07:07 1763
   238  6.7528e-03  2.0688e-02  1.3673e-02  1.6048e-01  6.7662e-03  3.1453e-03  1.1820e-03  0:05:42 1762
   239  7.1394e-03  2.0904e-02  1.3495e-02  1.5326e-01  7.1510e-03  3.1029e-03  1.1788e-03  0:04:33 1761
   240  7.4929e-03  2.1046e-02  1.3256e-02  1.4605e-01  7.5024e-03  3.0639e-03  1.1800e-03  0:03:38 1760
   241  7.8024e-03  2.1105e-02  1.2959e-02  1.3899e-01  7.8097e-03  3.0280e-03  1.1744e-03  0:02:55 1759
   242  8.0665e-03  2.1079e-02  1.2610e-02  1.3220e-01  8.0715e-03  2.9949e-03  1.1718e-03  0:02:20 1758

  iter  continuity  x-velocity  y-velocity  z-velocity      energy           k       omega     time/iter
   243  8.2850e-03  2.0967e-02  1.2216e-02  1.2572e-01  8.2878e-03  2.9594e-03  1.1700e-03  0:01:52 1757
   244  8.4566e-03  2.0762e-02  1.1783e-02  1.1913e-01  8.4572e-03  2.9285e-03  1.1612e-03  0:01:29 1756
   245  8.5797e-03  2.0488e-02  1.1313e-02  1.1315e-01  8.5782e-03  2.9012e-03  1.1643e-03  0:07:02 1755
   246  8.6573e-03  2.0172e-02  1.0808e-02  1.0782e-01  8.6538e-03  2.8759e-03  1.1702e-03  0:05:38 1754
   247  8.6810e-03  1.9775e-02  1.0289e-02  1.0323e-01  8.6756e-03  2.8534e-03  1.1703e-03  0:04:30 1753
   248  8.6618e-03  1.9298e-02  9.7633e-03  9.9427e-02  8.6546e-03  2.8341e-03  1.1710e-03  0:03:36 1752
   249  8.5977e-03  1.8739e-02  9.2447e-03  9.6392e-02  8.5887e-03  2.8182e-03  1.1699e-03  0:02:53 1751
   250  8.4928e-03  1.8146e-02  8.7079e-03  9.4146e-02  8.4822e-03  2.8057e-03  1.1668e-03  0:02:18 1750
   251  8.3418e-03  1.7519e-02  8.1695e-03  9.2539e-02  8.3298e-03  2.7962e-03  1.1632e-03  0:01:50 1749
   252  8.1473e-03  1.6861e-02  7.6447e-03  9.1617e-02  8.1340e-03  2.7891e-03  1.1549e-03  0:01:28 1748
   253  7.9157e-03  1.6177e-02  7.1430e-03  9.1329e-02  7.9011e-03  2.7788e-03  1.1398e-03  0:01:11 1747

  iter  continuity  x-velocity  y-velocity  z-velocity      energy           k       omega     time/iter
   254  7.6516e-03  1.5475e-02  6.6704e-03  9.1494e-02  7.6360e-03  2.7667e-03  1.1190e-03  0:06:46 1746
   255  7.3595e-03  1.4770e-02  6.2386e-03  9.2019e-02  7.3430e-03  2.7522e-03  1.1035e-03  0:05:24 1745
   256  7.0423e-03  1.4110e-02  5.8347e-03  9.2889e-02  7.0250e-03  2.7388e-03  1.0807e-03  0:04:19 1744
   257  6.7008e-03  1.3462e-02  5.4858e-03  9.4060e-02  6.6829e-03  2.7275e-03  1.0652e-03  0:03:27 1743
   258  6.3384e-03  1.2834e-02  5.2168e-03  9.5427e-02  6.3201e-03  2.7128e-03  1.0605e-03  0:02:46 1742
   259  5.9578e-03  1.2235e-02  5.0268e-03  9.6839e-02  5.9392e-03  2.6948e-03  1.0456e-03  0:02:13 1741
   260  5.5605e-03  1.1664e-02  4.9092e-03  9.8320e-02  5.5418e-03  2.6780e-03  1.0243e-03  0:01:46 1740
   261  5.1501e-03  1.1139e-02  4.8546e-03  9.9804e-02  5.1315e-03  2.6595e-03  1.0043e-03  0:01:25 1739
   262  4.7310e-03  1.0677e-02  4.8552e-03  1.0117e-01  4.7127e-03  2.6429e-03  9.8147e-04  0:06:55 1738
   263  4.3087e-03  1.0281e-02  4.9079e-03  1.0235e-01  4.2910e-03  2.6254e-03  9.5944e-04  0:05:32 1737
   264  3.8891e-03  9.9504e-03  5.0023e-03  1.0379e-01  3.8721e-03  2.6076e-03  9.3926e-04  0:04:26 1736

  iter  continuity  x-velocity  y-velocity  z-velocity      energy           k       omega     time/iter
   265  3.4761e-03  9.6728e-03  5.1383e-03  1.0526e-01  3.4603e-03  2.6248e-03  9.4170e-04  0:03:32 1735
   266  3.0630e-03  9.3756e-03  5.3995e-03  1.0664e-01  3.0488e-03  2.5903e-03  9.0840e-04  0:02:50 1734
   267  2.7471e-03  9.2987e-03  5.5762e-03  1.0787e-01  2.7352e-03  2.5596e-03  8.7896e-04  0:02:16 1733
   268  2.4487e-03  9.2470e-03  5.7268e-03  1.0900e-01  2.4393e-03  2.5250e-03  8.5340e-04  0:01:49 1732
   269  2.2081e-03  9.2420e-03  5.8863e-03  1.1009e-01  2.2018e-03  2.4900e-03  8.3107e-04  0:01:27 1731
   270  2.0881e-03  9.3182e-03  6.0459e-03  1.1120e-01  2.0855e-03  2.4543e-03  8.0873e-04  0:06:55 1730
   271  2.0962e-03  9.4590e-03  6.1844e-03  1.1236e-01  2.0971e-03  2.4168e-03  7.8905e-04  0:05:32 1729
   272  2.2120e-03  9.6559e-03  6.3027e-03  1.1240e-01  2.2159e-03  2.3802e-03  7.7223e-04  0:04:26 1728
   273  2.4027e-03  9.8686e-03  6.4036e-03  1.1210e-01  2.4085e-03  2.3377e-03  7.5805e-04  0:03:32 1727
   274  2.6437e-03  1.0025e-02  6.4841e-03  1.1164e-01  2.6506e-03  2.2916e-03  7.4344e-04  0:02:50 1726
   275  2.9224e-03  1.0172e-02  6.5442e-03  1.1108e-01  2.9297e-03  2.2465e-03  7.2539e-04  0:02:16 1725

  iter  continuity  x-velocity  y-velocity  z-velocity      energy           k       omega     time/iter
   276  3.2223e-03  1.0314e-02  6.5914e-03  1.1028e-01  3.2295e-03  2.1985e-03  7.0751e-04  0:01:49 1724
   277  3.5331e-03  1.0494e-02  6.6230e-03  1.0921e-01  3.5399e-03  2.1469e-03  6.8942e-04  0:01:27 1723
   278  3.8404e-03  1.0668e-02  6.6063e-03  1.0796e-01  3.8463e-03  2.0945e-03  6.7093e-04  0:06:54 1722
   279  4.1351e-03  1.0807e-02  6.5672e-03  1.0640e-01  4.1402e-03  2.0410e-03  6.5726e-04  0:05:31 1721
   280  4.4109e-03  1.0905e-02  6.5108e-03  1.0457e-01  4.4150e-03  1.9893e-03  6.4212e-04  0:04:25 1720
   281  4.6631e-03  1.0951e-02  6.4361e-03  1.0252e-01  4.6661e-03  1.9357e-03  6.2995e-04  0:03:31 1719
   282  4.8886e-03  1.0965e-02  6.3414e-03  1.0023e-01  4.8906e-03  1.8828e-03  6.2108e-04  0:02:49 1718
   283  5.0833e-03  1.0954e-02  6.2372e-03  9.7680e-02  5.0841e-03  1.8301e-03  6.0872e-04  0:02:15 1717
   284  5.2562e-03  1.0893e-02  6.1057e-03  9.5123e-02  5.2560e-03  1.7749e-03  5.9612e-04  0:01:48 1716
   285  5.3998e-03  1.0783e-02  5.9406e-03  9.2558e-02  5.3985e-03  1.7189e-03  5.8862e-04  0:01:26 1715
   286  5.5121e-03  1.0644e-02  5.7501e-03  8.9902e-02  5.5097e-03  1.6633e-03  5.8096e-04  0:06:52 1714

  iter  continuity  x-velocity  y-velocity  z-velocity      energy           k       omega     time/iter
   287  5.5926e-03  1.0480e-02  5.5407e-03  8.7248e-02  5.5891e-03  1.6090e-03  5.7451e-04  0:05:29 1713
   288  5.6412e-03  1.0289e-02  5.3166e-03  8.4811e-02  5.6367e-03  1.5581e-03  5.6915e-04  0:04:23 1712
   289  5.6579e-03  1.0071e-02  5.0810e-03  8.2734e-02  5.6525e-03  1.5076e-03  5.6389e-04  0:03:31 1711
   290  5.6429e-03  9.8276e-03  4.8360e-03  8.0873e-02  5.6366e-03  1.4607e-03  5.5897e-04  0:02:48 1710
   291  5.5970e-03  9.5596e-03  4.5849e-03  7.9354e-02  5.5899e-03  1.4152e-03  5.5586e-04  0:02:15 1709
   292  5.5212e-03  9.2690e-03  4.3325e-03  7.8108e-02  5.5133e-03  1.3727e-03  5.5326e-04  0:01:48 1708
   293  5.4166e-03  8.9584e-03  4.0838e-03  7.7200e-02  5.4080e-03  1.3314e-03  5.5435e-04  0:07:07 1707
   294  5.2844e-03  8.6291e-03  3.8426e-03  7.6595e-02  5.2752e-03  1.2891e-03  5.5674e-04  0:05:42 1706
   295  5.1261e-03  8.2877e-03  3.6125e-03  7.6135e-02  5.1164e-03  1.2462e-03  5.5555e-04  0:04:33 1705
   296  4.9437e-03  7.9395e-03  3.3991e-03  7.6061e-02  4.9336e-03  1.2083e-03  5.5562e-04  0:03:38 1704
   297  4.7393e-03  7.5891e-03  3.2085e-03  7.6277e-02  4.7288e-03  1.2204e-03  5.8516e-04  0:02:55 1703

  iter  continuity  x-velocity  y-velocity  z-velocity      energy           k       omega     time/iter
   298  4.5140e-03  7.2404e-03  3.0232e-03  7.6756e-02  4.5033e-03  1.1679e-03  5.6453e-04  0:02:20 1702
   299  4.2712e-03  6.9002e-03  2.8732e-03  7.7493e-02  4.2604e-03  1.1373e-03  5.5355e-04  0:01:52 1701
   300  4.0144e-03  6.5795e-03  2.7746e-03  7.8414e-02  4.0035e-03  1.1109e-03  5.4882e-04  0:01:29 1700
   301  3.7466e-03  6.2842e-03  2.7245e-03  7.9459e-02  3.7359e-03  1.0922e-03  5.5053e-04  0:06:51 1699
   302  3.4705e-03  6.0214e-03  2.7218e-03  8.0621e-02  3.4599e-03  1.0762e-03  5.4695e-04  0:05:29 1698
   303  3.1892e-03  5.7995e-03  2.7611e-03  8.1718e-02  3.1790e-03  1.0630e-03  5.4333e-04  0:04:23 1697
   304  2.9066e-03  5.6240e-03  2.8285e-03  8.2763e-02  2.8968e-03  1.0502e-03  5.4095e-04  0:03:30 1696
   305  2.6300e-03  5.5188e-03  2.9253e-03  8.3763e-02  2.6209e-03  1.0392e-03  5.4379e-04  0:02:48 1695
   306  2.3649e-03  5.4604e-03  3.0548e-03  8.4645e-02  2.3567e-03  1.0293e-03  5.3824e-04  0:02:14 1694
   307  2.1177e-03  5.4528e-03  3.1968e-03  8.5450e-02  2.1105e-03  1.0233e-03  5.3540e-04  0:01:47 1693
   308  1.8978e-03  5.4985e-03  3.3434e-03  8.6068e-02  1.8921e-03  1.0224e-03  5.3405e-04  0:07:04 1692

  iter  continuity  x-velocity  y-velocity  z-velocity      energy           k       omega     time/iter
   309  1.7170e-03  5.5931e-03  3.4889e-03  8.6460e-02  1.7129e-03  1.0224e-03  5.3221e-04  0:05:39 1691
   310  1.5881e-03  5.7291e-03  3.6292e-03  8.6475e-02  1.5859e-03  1.0257e-03  5.3081e-04  0:04:31 1690
   311  1.5237e-03  5.8978e-03  3.7610e-03  8.6176e-02  1.5235e-03  1.0329e-03  5.2952e-04  0:03:37 1689
   312  1.5266e-03  6.0914e-03  3.8813e-03  8.5524e-02  1.5282e-03  1.0416e-03  5.2809e-04  0:02:53 1688
   313  1.5920e-03  6.2979e-03  3.9874e-03  8.4788e-02  1.5948e-03  1.0531e-03  5.2698e-04  0:02:19 1687
   314  1.7081e-03  6.5027e-03  4.0759e-03  8.3788e-02  1.7116e-03  1.0675e-03  5.2643e-04  0:01:51 1686
   315  1.8605e-03  6.7061e-03  4.1495e-03  8.3371e-02  1.8641e-03  1.0832e-03  5.2524e-04  0:01:29 1685
   316  2.0351e-03  6.9022e-03  4.2062e-03  8.2850e-02  2.0386e-03  1.0987e-03  5.2770e-04  0:06:48 1684
   317  2.2546e-03  7.0903e-03  4.2473e-03  8.1730e-02  2.2577e-03  1.1170e-03  5.2317e-04  0:05:26 1683
   318  2.4278e-03  7.2556e-03  4.2650e-03  8.0026e-02  2.4303e-03  1.1361e-03  5.2484e-04  0:04:21 1682
   319  2.6017e-03  7.4050e-03  4.2670e-03  7.7928e-02  2.6036e-03  1.1579e-03  5.1478e-04  0:03:28 1681

  iter  continuity  x-velocity  y-velocity  z-velocity      energy           k       omega     time/iter
   320  2.7726e-03  7.4838e-03  4.2474e-03  7.5751e-02  2.7737e-03  1.1797e-03  5.1842e-04  0:02:47 1680
   321  2.9434e-03  7.5756e-03  4.2103e-03  7.3501e-02  2.9438e-03  1.2018e-03  5.2169e-04  0:02:13 1679
   322  3.1043e-03  7.6556e-03  4.1533e-03  7.1128e-02  3.1039e-03  1.2243e-03  5.2549e-04  0:01:46 1678
   323  3.2511e-03  7.7125e-03  4.0804e-03  6.8746e-02  3.2499e-03  1.2460e-03  5.2665e-04  0:01:25 1677
   324  3.3827e-03  7.7391e-03  3.9932e-03  6.6436e-02  3.3807e-03  1.2653e-03  5.3031e-04  0:06:43 1676
   325  3.4984e-03  7.7352e-03  3.8927e-03  6.4335e-02  3.4956e-03  1.2800e-03  5.3748e-04  0:05:22 1675
   326  3.5975e-03  7.7020e-03  3.7802e-03  6.2555e-02  3.5939e-03  1.2911e-03  5.4090e-04  0:04:18 1674
   327  3.6792e-03  7.6404e-03  3.6571e-03  6.1156e-02  3.6748e-03  1.3008e-03  5.4220e-04  0:03:26 1673
   328  3.7430e-03  7.5511e-03  3.5248e-03  6.0149e-02  3.7380e-03  1.3081e-03  5.4471e-04  0:02:45 1672
   329  3.7888e-03  7.4355e-03  3.3853e-03  5.9514e-02  3.7830e-03  1.3135e-03  5.4514e-04  0:02:12 1671
   330  3.8156e-03  7.2950e-03  3.2408e-03  5.9259e-02  3.8093e-03  1.3165e-03  5.4913e-04  0:01:45 1670

  iter  continuity  x-velocity  y-velocity  z-velocity      energy           k       omega     time/iter
   331  3.8236e-03  7.1317e-03  3.0928e-03  5.9388e-02  3.8167e-03  1.3178e-03  5.5395e-04  0:01:24 1669
   332  3.8127e-03  6.9479e-03  2.9427e-03  5.9810e-02  3.8053e-03  1.3177e-03  5.5641e-04  0:06:41 1668
   333  3.7834e-03  6.7473e-03  2.7978e-03  6.0425e-02  3.7755e-03  1.3160e-03  5.5259e-04  0:05:21 1667
   334  3.7362e-03  6.5335e-03  2.6602e-03  6.1293e-02  3.7278e-03  1.3133e-03  5.4741e-04  0:04:16 1666
   335  3.6722e-03  6.3082e-03  2.5335e-03  6.2288e-02  3.6635e-03  1.3114e-03  5.4274e-04  0:03:25 1665
   336  3.5923e-03  6.0745e-03  2.4204e-03  6.3280e-02  3.5832e-03  1.3124e-03  5.3411e-04  0:02:44 1664
   337  3.4972e-03  5.8360e-03  2.3231e-03  6.4327e-02  3.4879e-03  1.3110e-03  5.2948e-04  0:02:11 1663
   338  3.3880e-03  5.5967e-03  2.2438e-03  6.5230e-02  3.3785e-03  1.3059e-03  5.2396e-04  0:01:45 1662
   339  3.2657e-03  5.3615e-03  2.1832e-03  6.6017e-02  3.2561e-03  1.2986e-03  5.1578e-04  0:06:56 1661
   340  3.1313e-03  5.1349e-03  2.1434e-03  6.6676e-02  3.1217e-03  1.2903e-03  5.0797e-04  0:05:33 1660
   341  2.9859e-03  4.9209e-03  2.1246e-03  6.7121e-02  2.9763e-03  1.2808e-03  5.0251e-04  0:04:26 1659

  iter  continuity  x-velocity  y-velocity  z-velocity      energy           k       omega     time/iter
   342  2.8308e-03  4.7236e-03  2.1262e-03  6.7344e-02  2.8212e-03  1.2719e-03  4.9312e-04  0:03:33 1658
   343  2.6675e-03  4.5469e-03  2.1469e-03  6.7360e-02  2.6582e-03  1.2618e-03  4.8215e-04  0:02:50 1657
   344  2.4980e-03  4.3938e-03  2.1844e-03  6.7158e-02  2.4888e-03  1.2508e-03  4.7784e-04  0:02:16 1656
   345  2.3240e-03  4.2656e-03  2.2415e-03  6.6732e-02  2.3152e-03  1.2392e-03  4.7523e-04  0:01:49 1655
   346  2.1469e-03  4.1552e-03  2.3083e-03  6.6101e-02  2.1385e-03  1.2256e-03  4.7001e-04  0:06:58 1654
   347  1.9700e-03  4.0770e-03  2.3837e-03  6.5283e-02  1.9622e-03  1.2093e-03  4.6399e-04  0:05:34 1653
   348  1.7969e-03  4.0347e-03  2.4633e-03  6.4326e-02  1.7898e-03  1.1916e-03  4.5605e-04  0:04:27 1652
   349  1.6947e-03  4.0340e-03  2.5673e-03  6.3325e-02  1.6887e-03  1.1733e-03  4.4575e-04  0:03:33 1651
   350  1.5442e-03  4.0753e-03  2.6496e-03  6.2121e-02  1.5392e-03  1.1556e-03  4.3679e-04  0:02:51 1650
   351  1.3852e-03  4.1528e-03  2.7234e-03  6.0892e-02  1.3813e-03  1.1373e-03  4.3222e-04  0:02:16 1649
   352  1.3053e-03  4.2508e-03  2.8020e-03  5.9565e-02  1.3028e-03  1.1544e-03  4.5053e-04  0:01:49 1648

  iter  continuity  x-velocity  y-velocity  z-velocity      energy           k       omega     time/iter
   353  1.2410e-03  4.3555e-03  2.8639e-03  5.8082e-02  1.2400e-03  1.1212e-03  4.3241e-04  0:01:27 1647
   354  1.1903e-03  4.4699e-03  2.9326e-03  5.6472e-02  1.1907e-03  1.0966e-03  4.1872e-04  0:06:39 1646
   355  1.2039e-03  4.5827e-03  2.9856e-03  5.4782e-02  1.2055e-03  1.0748e-03  4.0745e-04  0:05:19 1645
   356  1.2432e-03  4.6984e-03  3.0340e-03  5.3016e-02  1.2457e-03  1.0549e-03  3.9708e-04  0:04:15 1644
   357  1.3122e-03  4.8116e-03  3.0729e-03  5.1236e-02  1.3153e-03  1.0359e-03  3.8847e-04  0:03:24 1643
   358  1.4115e-03  4.9193e-03  3.1009e-03  4.9463e-02  1.4147e-03  1.0185e-03  3.8095e-04  0:02:43 1642
   359  1.5270e-03  5.0184e-03  3.1177e-03  4.7703e-02  1.5302e-03  1.0006e-03  3.7395e-04  0:02:10 1641
   360  1.6490e-03  5.1071e-03  3.1229e-03  4.5971e-02  1.6520e-03  9.8223e-04  3.6539e-04  0:01:44 1640
   361  1.7720e-03  5.1864e-03  3.1167e-03  4.4230e-02  1.7747e-03  9.6295e-04  3.5650e-04  0:06:51 1639
   362  1.8936e-03  5.2580e-03  3.0993e-03  4.2317e-02  1.8958e-03  9.4325e-04  3.4868e-04  0:05:29 1638
   363  2.0078e-03  5.3065e-03  3.0729e-03  4.0566e-02  2.0095e-03  9.2377e-04  3.4310e-04  0:04:23 1637

  iter  continuity  x-velocity  y-velocity  z-velocity      energy           k       omega     time/iter
   364  2.1173e-03  5.3444e-03  3.0359e-03  3.9119e-02  2.1185e-03  9.0323e-04  3.3692e-04  0:03:30 1636
   365  2.2191e-03  5.3593e-03  2.9852e-03  3.7980e-02  2.2197e-03  8.8238e-04  3.3029e-04  0:02:48 1635
   366  2.3106e-03  5.3547e-03  2.9233e-03  3.7103e-02  2.3107e-03  8.6165e-04  3.2319e-04  0:02:14 1634
   367  2.3906e-03  5.3333e-03  2.8516e-03  3.6508e-02  2.3901e-03  8.4156e-04  3.1670e-04  0:01:47 1633
   368  2.4584e-03  5.2952e-03  2.7712e-03  3.6167e-02  2.4573e-03  8.2249e-04  3.1060e-04  0:01:26 1632
   369  2.5133e-03  5.2416e-03  2.6828e-03  3.6111e-02  2.5117e-03  8.0415e-04  3.0215e-04  0:06:35 1631
   370  2.5553e-03  5.1726e-03  2.5874e-03  3.6322e-02  2.5532e-03  7.8652e-04  2.9513e-04  0:05:16 1630
   371  2.5841e-03  5.0889e-03  2.4861e-03  3.6799e-02  2.5814e-03  7.6936e-04  2.8966e-04  0:04:12 1629
   372  2.5996e-03  4.9909e-03  2.3801e-03  3.7487e-02  2.5965e-03  7.5351e-04  2.8654e-04  0:03:22 1628
   373  2.6020e-03  4.8796e-03  2.2708e-03  3.8362e-02  2.5984e-03  7.4075e-04  2.8369e-04  0:02:41 1627
   374  2.5913e-03  4.7558e-03  2.1599e-03  3.9385e-02  2.5872e-03  7.2875e-04  2.7829e-04  0:02:09 1626

  iter  continuity  x-velocity  y-velocity  z-velocity      energy           k       omega     time/iter
   375  2.5676e-03  4.6207e-03  2.0493e-03  4.0548e-02  2.5631e-03  7.1759e-04  2.7328e-04  0:01:43 1625
   376  2.5311e-03  4.4762e-03  1.9408e-03  4.1814e-02  2.5262e-03  7.0719e-04  2.7000e-04  0:01:22 1624
   377  2.4826e-03  4.3236e-03  1.8366e-03  4.3066e-02  2.4774e-03  6.9741e-04  2.6557e-04  0:06:31 1623
   378  2.4228e-03  4.1647e-03  1.7391e-03  4.4441e-02  2.4173e-03  6.8714e-04  2.6116e-04  0:05:12 1622
   379  2.3523e-03  4.0014e-03  1.6504e-03  4.5837e-02  2.3464e-03  6.7605e-04  2.5528e-04  0:04:10 1621
   380  2.2713e-03  3.8366e-03  1.5733e-03  4.7209e-02  2.2652e-03  6.6420e-04  2.5078e-04  0:03:20 1620
   381  2.1808e-03  3.6729e-03  1.5102e-03  4.8524e-02  2.1746e-03  6.5201e-04  2.4531e-04  0:02:40 1619
   382  2.0820e-03  3.5128e-03  1.4630e-03  4.9726e-02  2.0756e-03  6.4028e-04  2.4288e-04  0:02:08 1618
   383  1.9760e-03  3.3593e-03  1.4298e-03  5.0814e-02  1.9696e-03  6.7534e-04  2.7362e-04  0:01:42 1617
   384  1.8649e-03  3.2235e-03  1.4135e-03  5.1767e-02  1.8584e-03  6.3912e-04  2.5266e-04  0:01:22 1616
   385  1.7500e-03  3.0945e-03  1.4215e-03  5.2588e-02  1.7435e-03  6.2124e-04  2.4445e-04  0:06:28 1615

  iter  continuity  x-velocity  y-velocity  z-velocity      energy           k       omega     time/iter
   386  1.6322e-03  2.9791e-03  1.4452e-03  5.3226e-02  1.6258e-03  6.0285e-04  2.3801e-04  0:05:10 1614
   387  1.5129e-03  2.8829e-03  1.4813e-03  5.3681e-02  1.5066e-03  5.8988e-04  2.3714e-04  0:04:08 1613
   388  1.3936e-03  2.8080e-03  1.5137e-03  5.3959e-02  1.3875e-03  5.7710e-04  2.3540e-04  0:03:18 1612
   389  1.2770e-03  2.7571e-03  1.5659e-03  5.4068e-02  1.2713e-03  5.6573e-04  2.3185e-04  0:02:39 1611
   390  1.1653e-03  2.7297e-03  1.6245e-03  5.4056e-02  1.1599e-03  5.5602e-04  2.3030e-04  0:02:07 1610
   391  1.0616e-03  2.7246e-03  1.6868e-03  5.3803e-02  1.0568e-03  5.4683e-04  2.2911e-04  0:01:41 1609
   392  9.6970e-04  2.7397e-03  1.7495e-03  5.3374e-02  9.6548e-04  5.3862e-04  2.2803e-04  0:01:21 1608
   393  8.9356e-04  2.7720e-03  1.8103e-03  5.2822e-02  8.9014e-04  5.3108e-04  2.2810e-04  0:06:26 1607
   394  8.3611e-04  2.8098e-03  1.8678e-03  5.2103e-02  8.3360e-04  5.2443e-04  2.2988e-04  0:05:09 1606
   395  8.0099e-04  2.8521e-03  1.9210e-03  5.1295e-02  7.9946e-04  5.1789e-04  2.3006e-04  0:04:07 1605
   396  7.9020e-04  2.9069e-03  1.9668e-03  5.0305e-02  7.8965e-04  5.1254e-04  2.2986e-04  0:03:17 1604

  iter  continuity  x-velocity  y-velocity  z-velocity      energy           k       omega     time/iter
   397  8.0186e-04  2.9668e-03  2.0053e-03  4.9093e-02  8.0218e-04  5.0948e-04  2.3196e-04  0:02:38 1603
   398  8.3255e-04  3.0278e-03  2.0361e-03  4.7674e-02  8.3356e-04  5.0846e-04  2.3180e-04  0:02:06 1602
   399  8.7767e-04  3.0867e-03  2.0587e-03  4.6069e-02  8.7917e-04  5.0838e-04  2.3480e-04  0:01:41 1601
   400  9.3259e-04  3.1407e-03  2.0729e-03  4.4287e-02  9.3439e-04  5.0927e-04  2.3835e-04  0:01:21 1600
   401  9.9304e-04  3.1882e-03  2.0785e-03  4.2402e-02  9.9500e-04  5.1063e-04  2.4053e-04  0:06:24 1599
   402  1.0556e-03  3.2284e-03  2.0752e-03  4.0486e-02  1.0576e-03  5.1307e-04  2.4486e-04  0:05:07 1598
   403  1.1175e-03  3.2596e-03  2.0632e-03  3.8565e-02  1.1194e-03  5.1558e-04  2.4935e-04  0:04:06 1597
   404  1.1765e-03  3.2808e-03  2.0426e-03  3.6649e-02  1.1784e-03  5.1783e-04  2.5503e-04  0:03:16 1596
   405  1.2313e-03  3.2929e-03  2.0135e-03  3.4764e-02  1.2329e-03  5.1964e-04  2.5854e-04  0:02:37 1595
   406  1.2805e-03  3.2946e-03  1.9767e-03  3.2954e-02  1.2820e-03  5.2208e-04  2.6093e-04  0:02:06 1594
   407  1.3233e-03  3.2828e-03  1.9326e-03  3.1219e-02  1.3245e-03  5.2518e-04  2.6487e-04  0:01:40 1593

  iter  continuity  x-velocity  y-velocity  z-velocity      energy           k       omega     time/iter
   408  1.3591e-03  3.2599e-03  1.8812e-03  2.9625e-02  1.3600e-03  5.2915e-04  2.7062e-04  0:01:20 1592
   409  1.3873e-03  3.2257e-03  1.8229e-03  2.8193e-02  1.3881e-03  5.3403e-04  2.7587e-04  0:06:22 1591
   410  1.4078e-03  3.1812e-03  1.7582e-03  2.6995e-02  1.4083e-03  5.4090e-04  2.7865e-04  0:05:06 1590
   411  1.4196e-03  3.1185e-03  1.6898e-03  2.6068e-02  1.4199e-03  5.4944e-04  2.8252e-04  0:04:04 1589
   412  1.4236e-03  3.0509e-03  1.6152e-03  2.5453e-02  1.4237e-03  5.6023e-04  2.8740e-04  0:03:15 1588
   413  1.4201e-03  2.9815e-03  1.5324e-03  2.5165e-02  1.4200e-03  5.7262e-04  2.9264e-04  0:02:36 1587
   414  1.4090e-03  2.9053e-03  1.4470e-03  2.5227e-02  1.4087e-03  5.8428e-04  2.9417e-04  0:02:05 1586
   415  1.3903e-03  2.8216e-03  1.3611e-03  2.5618e-02  1.3898e-03  5.9532e-04  2.9241e-04  0:01:40 1585
   416  1.3645e-03  2.7314e-03  1.2755e-03  2.6279e-02  1.3638e-03  6.0508e-04  2.9586e-04  0:01:20 1584
   417  1.3318e-03  2.6362e-03  1.1909e-03  2.7173e-02  1.3310e-03  6.1356e-04  2.9834e-04  0:06:20 1583
   418  1.2928e-03  2.5379e-03  1.1082e-03  2.8284e-02  1.2919e-03  6.2124e-04  2.9574e-04  0:05:04 1582

  iter  continuity  x-velocity  y-velocity  z-velocity      energy           k       omega     time/iter
   419  1.2481e-03  2.4382e-03  1.0285e-03  2.9557e-02  1.2471e-03  6.2791e-04  2.9301e-04  0:04:03 1581
   420  1.1983e-03  2.3388e-03  9.5298e-04  3.0910e-02  1.1972e-03  6.3322e-04  2.9099e-04  0:03:14 1580
   421  1.1443e-03  2.2416e-03  8.8342e-04  3.2296e-02  1.1431e-03  6.3677e-04  2.8945e-04  0:02:35 1579
   422  1.0869e-03  2.1483e-03  8.2172e-04  3.3672e-02  1.0857e-03  6.4149e-04  2.8751e-04  0:02:04 1578
   423  1.0273e-03  2.0597e-03  7.6868e-04  3.5044e-02  1.0261e-03  6.4578e-04  2.8513e-04  0:01:39 1577
   424  9.6681e-04  1.9781e-03  7.2578e-04  3.6388e-02  9.6564e-04  6.4943e-04  2.8346e-04  0:06:35 1576
   425  9.0687e-04  1.9053e-03  6.9407e-04  3.7674e-02  9.0575e-04  6.5243e-04  2.8545e-04  0:05:16 1575
   426  8.4932e-04  1.8423e-03  6.8007e-04  3.8871e-02  8.4825e-04  6.5504e-04  2.8618e-04  0:04:12 1574
   427  7.9588e-04  1.7946e-03  6.7266e-04  3.9978e-02  7.9490e-04  6.5756e-04  2.8363e-04  0:03:22 1573
   428  7.4826e-04  1.7609e-03  6.7270e-04  4.0998e-02  7.4735e-04  6.5918e-04  2.8330e-04  0:02:41 1572
   429  7.0969e-04  1.7394e-03  6.8201e-04  4.1907e-02  7.0887e-04  6.6004e-04  2.8179e-04  0:02:09 1571

  iter  continuity  x-velocity  y-velocity  z-velocity      energy           k       omega     time/iter
   430  6.8223e-04  1.7288e-03  6.9926e-04  4.2689e-02  6.8148e-04  6.6010e-04  2.8066e-04  0:06:57 1570
   431  6.6727e-04  1.7271e-03  7.2228e-04  4.3370e-02  6.6657e-04  6.5894e-04  2.7895e-04  0:05:33 1569
   432  6.6556e-04  1.7334e-03  7.4875e-04  4.3939e-02  6.6488e-04  6.5706e-04  2.7528e-04  0:04:27 1568
   433  6.7693e-04  1.7463e-03  7.7667e-04  4.4388e-02  6.7622e-04  6.5485e-04  2.7098e-04  0:03:33 1567
   434  7.0018e-04  1.7639e-03  8.0460e-04  4.4719e-02  6.9940e-04  6.5193e-04  2.6841e-04  0:02:50 1566
   435  7.3337e-04  1.7850e-03  8.3114e-04  4.4898e-02  7.3248e-04  6.4853e-04  2.6295e-04  0:02:16 1565
   436  7.7424e-04  1.8081e-03  8.5498e-04  4.4935e-02  7.7320e-04  6.4448e-04  2.6052e-04  0:01:49 1564
   437  8.2047e-04  1.8314e-03  8.7555e-04  4.4768e-02  8.1925e-04  6.3993e-04  2.5848e-04  0:01:27 1563
   438  8.6997e-04  1.8533e-03  8.9238e-04  4.4506e-02  8.6855e-04  6.3460e-04  2.5573e-04  0:06:22 1562
   439  9.2087e-04  1.8724e-03  9.0508e-04  4.4127e-02  9.1923e-04  6.2867e-04  2.5105e-04  0:05:05 1561
   440  9.7174e-04  1.8878e-03  9.1344e-04  4.3601e-02  9.6986e-04  6.2240e-04  2.4695e-04  0:04:04 1560

  iter  continuity  x-velocity  y-velocity  z-velocity      energy           k       omega     time/iter
   441  1.0213e-03  1.8987e-03  9.1730e-04  4.2943e-02  1.0192e-03  6.1544e-04  2.4289e-04  0:03:15 1559
   442  1.0685e-03  1.9041e-03  9.1668e-04  4.2123e-02  1.0661e-03  6.0849e-04  2.4399e-04  0:02:36 1558
   443  1.1123e-03  1.9037e-03  9.1169e-04  4.1187e-02  1.1097e-03  6.0117e-04  2.4000e-04  0:02:05 1557
   444  1.1522e-03  1.8971e-03  9.0254e-04  4.0092e-02  1.1493e-03  5.9300e-04  2.3843e-04  0:01:40 1556
   445  1.1874e-03  1.8840e-03  8.8955e-04  3.8854e-02  1.1843e-03  5.8634e-04  2.3841e-04  0:01:20 1555
   446  1.2176e-03  1.8644e-03  8.7311e-04  3.7532e-02  1.2142e-03  6.1674e-04  2.6242e-04  0:06:15 1554
   447  1.2424e-03  1.8384e-03  8.5373e-04  3.6111e-02  1.2388e-03  5.9415e-04  2.4973e-04  0:04:59 1553
   448  1.2616e-03  1.8061e-03  8.3197e-04  3.4608e-02  1.2577e-03  5.8092e-04  2.4242e-04  0:03:59 1552
   449  1.2749e-03  1.7679e-03  8.0857e-04  3.3039e-02  1.2708e-03  5.6999e-04  2.3725e-04  0:03:11 1551
   450  1.2823e-03  1.7242e-03  7.8435e-04  3.1419e-02  1.2780e-03  5.6048e-04  2.3163e-04  0:02:33 1550
   451  1.2837e-03  1.6756e-03  7.6023e-04  2.9761e-02  1.2792e-03  5.5049e-04  2.2646e-04  0:02:02 1549

  iter  continuity  x-velocity  y-velocity  z-velocity      energy           k       omega     time/iter
   452  1.2792e-03  1.6228e-03  7.3721e-04  2.8063e-02  1.2745e-03  5.4180e-04  2.2321e-04  0:01:38 1548
   453  1.2689e-03  1.5667e-03  7.1642e-04  2.6374e-02  1.2640e-03  5.3317e-04  2.2033e-04  0:01:18 1547
   454  1.2529e-03  1.5083e-03  6.9902e-04  2.4664e-02  1.2478e-03  5.2501e-04  2.1682e-04  0:06:12 1546
   455  1.2313e-03  1.4487e-03  6.8612e-04  2.3002e-02  1.2262e-03  5.1791e-04  2.1108e-04  0:04:57 1545
   456  1.2046e-03  1.3892e-03  6.7864e-04  2.1409e-02  1.1993e-03  5.1129e-04  2.0469e-04  0:03:58 1544
   457  1.1729e-03  1.3313e-03  6.7730e-04  1.9925e-02  1.1675e-03  5.0482e-04  1.9946e-04  0:03:10 1543
   458  1.1367e-03  1.2766e-03  6.8255e-04  1.8591e-02  1.1312e-03  4.9929e-04  1.9726e-04  0:02:32 1542
   459  1.0962e-03  1.2261e-03  6.8670e-04  1.7443e-02  1.0907e-03  4.9465e-04  1.9594e-04  0:02:01 1541
   460  1.0520e-03  1.1822e-03  7.0128e-04  1.6512e-02  1.0464e-03  4.9002e-04  1.9337e-04  0:01:37 1540
   461  1.0044e-03  1.1469e-03  7.2377e-04  1.5831e-02  9.9888e-04  4.8545e-04  1.9104e-04  0:01:18 1539
   462  9.5400e-04  1.1221e-03  7.5223e-04  1.5431e-02  9.4849e-04  4.8087e-04  1.8865e-04  0:06:10 1538

  iter  continuity  x-velocity  y-velocity  z-velocity      energy           k       omega     time/iter
   463  9.0129e-04  1.1083e-03  7.8534e-04  1.5310e-02  8.9582e-04  4.7621e-04  1.8661e-04  0:04:56 1537
   464  8.4701e-04  1.1059e-03  8.2161e-04  1.5452e-02  8.4163e-04  5.2021e-04  2.1623e-04  0:03:56 1536
   465  7.9184e-04  1.1147e-03  8.5982e-04  1.5836e-02  7.8658e-04  4.9035e-04  1.9604e-04  0:03:09 1535
   466  7.3653e-04  1.1339e-03  8.9892e-04  1.6420e-02  7.3144e-04  4.8017e-04  1.8850e-04  0:02:31 1534
   467  6.8197e-04  1.1622e-03  9.3798e-04  1.7161e-02  6.7708e-04  4.6812e-04  1.8057e-04  0:02:01 1533
   468  6.2910e-04  1.1982e-03  9.7620e-04  1.8000e-02  6.2446e-04  4.6037e-04  1.7764e-04  0:01:37 1532
   469  5.7901e-04  1.2401e-03  1.0129e-03  1.8900e-02  5.7469e-04  4.5230e-04  1.7581e-04  0:06:23 1531
   470  5.3302e-04  1.2861e-03  1.0474e-03  1.9823e-02  5.2909e-04  4.4458e-04  1.7353e-04  0:05:06 1530
   471  4.9249e-04  1.3345e-03  1.0793e-03  2.0743e-02  4.8904e-04  4.3777e-04  1.7026e-04  0:04:05 1529
   472  4.5888e-04  1.3838e-03  1.1080e-03  2.1627e-02  4.5599e-04  4.3074e-04  1.6715e-04  0:03:16 1528
   473  4.3348e-04  1.4324e-03  1.1332e-03  2.2464e-02  4.3122e-04  4.2347e-04  1.6413e-04  0:02:37 1527

  iter  continuity  x-velocity  y-velocity  z-velocity      energy           k       omega     time/iter
   474  4.1730e-04  1.4792e-03  1.1546e-03  2.3230e-02  4.1571e-04  4.1597e-04  1.6251e-04  0:02:05 1526
   475  4.1055e-04  1.5232e-03  1.1719e-03  2.3900e-02  4.0963e-04  4.0857e-04  1.6156e-04  0:01:40 1525
   476  4.1268e-04  1.5634e-03  1.1848e-03  2.4480e-02  4.1237e-04  4.0100e-04  1.5816e-04  0:01:20 1524
   477  4.2240e-04  1.5992e-03  1.1934e-03  2.4989e-02  4.2261e-04  3.9374e-04  1.5531e-04  0:06:09 1523
   478  4.3799e-04  1.6302e-03  1.1973e-03  2.5411e-02  4.3861e-04  3.8694e-04  1.5424e-04  0:04:55 1522
   479  4.5764e-04  1.6570e-03  1.1965e-03  2.5764e-02  4.5854e-04  3.8040e-04  1.5341e-04  0:03:56 1521
   480  4.7957e-04  1.6764e-03  1.1914e-03  2.6032e-02  4.8067e-04  3.7394e-04  1.5184e-04  0:03:08 1520
   481  5.0229e-04  1.6893e-03  1.1819e-03  2.6144e-02  5.0351e-04  3.6752e-04  1.4956e-04  0:02:31 1519
   482  5.2461e-04  1.6959e-03  1.1678e-03  2.6137e-02  5.2587e-04  3.6132e-04  1.4897e-04  0:02:00 1518
   483  5.4556e-04  1.6961e-03  1.1493e-03  2.6011e-02  5.4682e-04  3.5529e-04  1.4963e-04  0:01:36 1517
   484  5.6439e-04  1.6901e-03  1.1265e-03  2.5767e-02  5.6561e-04  3.4938e-04  1.4998e-04  0:01:17 1516

  iter  continuity  x-velocity  y-velocity  z-velocity      energy           k       omega     time/iter
   485  5.8055e-04  1.6779e-03  1.0998e-03  2.5412e-02  5.8170e-04  3.4363e-04  1.4963e-04  0:06:05 1515
   486  5.9380e-04  1.6598e-03  1.0693e-03  2.4961e-02  5.9486e-04  3.3805e-04  1.4952e-04  0:04:51 1514
   487  6.0328e-04  1.6361e-03  1.0352e-03  2.4418e-02  6.0424e-04  3.3288e-04  1.4977e-04  0:03:53 1513
   488  6.0938e-04  1.6071e-03  9.9802e-04  2.3786e-02  6.1023e-04  3.2822e-04  1.5093e-04  0:03:06 1512
   489  6.1194e-04  1.5732e-03  9.5794e-04  2.3061e-02  6.1267e-04  3.2371e-04  1.5298e-04  0:02:29 1511
   490  6.1077e-04  1.5342e-03  9.1549e-04  2.2249e-02  6.1138e-04  3.1932e-04  1.5243e-04  0:01:59 1510
   491  6.0589e-04  1.4903e-03  8.7140e-04  2.1365e-02  6.0638e-04  3.1497e-04  1.5407e-04  0:01:35 1509
   492  5.9768e-04  1.4460e-03  8.2418e-04  2.0450e-02  5.9804e-04  3.1073e-04  1.5209e-04  0:01:16 1508
   493  5.8623e-04  1.3997e-03  7.7556e-04  1.9521e-02  5.8646e-04  3.0690e-04  1.4970e-04  0:06:02 1507
   494  5.7176e-04  1.3514e-03  7.2651e-04  1.8604e-02  5.7186e-04  3.0377e-04  1.4937e-04  0:04:50 1506
   495  5.5463e-04  1.3016e-03  6.7754e-04  1.7716e-02  5.5458e-04  3.0142e-04  1.4889e-04  0:03:52 1505

  iter  continuity  x-velocity  y-velocity  z-velocity      energy           k       omega     time/iter
   496  5.3527e-04  1.2516e-03  6.2912e-04  1.6848e-02  5.3508e-04  2.9941e-04  1.4831e-04  0:03:05 1504
   497  5.1421e-04  1.2023e-03  5.8177e-04  1.6053e-02  5.1387e-04  2.9780e-04  1.4695e-04  0:02:28 1503
   498  4.9214e-04  1.1549e-03  5.3612e-04  1.5360e-02  4.9162e-04  2.9674e-04  1.4457e-04  0:01:58 1502
   499  4.6985e-04  1.1104e-03  4.9291e-04  1.4779e-02  4.6915e-04  2.9594e-04  1.4348e-04  0:01:35 1501
   500  4.4832e-04  1.0698e-03  4.5295e-04  1.4294e-02  4.4740e-04  2.9519e-04  1.4291e-04  0:01:16 1500
   501  4.2862e-04  1.0342e-03  4.1738e-04  1.3970e-02  4.2747e-04  2.9447e-04  1.4196e-04  0:06:00 1499
   502  4.1202e-04  1.0050e-03  3.8763e-04  1.3803e-02  4.1060e-04  2.9385e-04  1.3973e-04  0:04:48 1498
   503  3.9970e-04  9.8293e-04  3.6251e-04  1.3784e-02  3.9798e-04  2.9323e-04  1.3724e-04  0:03:50 1497
   504  3.9282e-04  9.6758e-04  3.4368e-04  1.3914e-02  3.9079e-04  2.9241e-04  1.3500e-04  0:03:04 1496
   505  3.9226e-04  9.5847e-04  3.3217e-04  1.4164e-02  3.8991e-04  2.9135e-04  1.3496e-04  0:02:27 1495
   506  3.9845e-04  9.5504e-04  3.2805e-04  1.4504e-02  3.9579e-04  2.9030e-04  1.3566e-04  0:01:58 1494

  iter  continuity  x-velocity  y-velocity  z-velocity      energy           k       omega     time/iter
   507  4.1137e-04  9.5731e-04  3.2997e-04  1.4947e-02  4.0841e-04  2.8945e-04  1.3592e-04  0:01:34 1493
   508  4.3046e-04  9.6468e-04  3.3692e-04  1.5454e-02  4.2723e-04  2.8836e-04  1.3606e-04  0:01:15 1492
   509  4.5486e-04  9.7611e-04  3.4772e-04  1.5999e-02  4.5139e-04  2.8715e-04  1.3605e-04  0:05:58 1491
   510  4.8352e-04  9.9048e-04  3.6123e-04  1.6574e-02  4.7983e-04  2.8584e-04  1.3541e-04  0:04:46 1490
   511  5.1537e-04  1.0067e-03  3.7634e-04  1.7148e-02  5.1147e-04  2.8450e-04  1.3354e-04  0:03:49 1489
   512  5.4938e-04  1.0237e-03  3.9217e-04  1.7718e-02  5.4529e-04  2.8331e-04  1.3337e-04  0:03:03 1488
   513  5.8464e-04  1.0405e-03  4.0803e-04  1.8264e-02  5.8036e-04  2.8206e-04  1.3272e-04  0:02:26 1487
   514  6.2035e-04  1.0563e-03  4.2344e-04  1.8776e-02  6.1587e-04  2.8068e-04  1.3255e-04  0:01:57 1486
   515  6.5581e-04  1.0704e-03  4.3806e-04  1.9243e-02  6.5114e-04  2.7940e-04  1.3226e-04  0:01:34 1485
   516  6.9043e-04  1.0821e-03  4.5173e-04  1.9662e-02  6.8557e-04  2.7818e-04  1.3031e-04  0:01:15 1484
   517  7.2368e-04  1.0910e-03  4.6439e-04  2.0025e-02  7.1863e-04  2.7697e-04  1.2893e-04  0:05:56 1483

  iter  continuity  x-velocity  y-velocity  z-velocity      energy           k       omega     time/iter
   518  7.5512e-04  1.0965e-03  4.7608e-04  2.0319e-02  7.4989e-04  2.7583e-04  1.2873e-04  0:04:45 1482
   519  7.8436e-04  1.0986e-03  4.8695e-04  2.0548e-02  7.7895e-04  2.7478e-04  1.2732e-04  0:03:48 1481
   520  8.1107e-04  1.0968e-03  4.9721e-04  2.0712e-02  8.0547e-04  2.7366e-04  1.2683e-04  0:03:02 1480
   521  8.3494e-04  1.0913e-03  5.0715e-04  2.0813e-02  8.2916e-04  2.7266e-04  1.2578e-04  0:02:26 1479
   522  8.5577e-04  1.0820e-03  5.1709e-04  2.0836e-02  8.4981e-04  3.0933e-04  1.4997e-04  0:01:56 1478
   523  8.7334e-04  1.0690e-03  5.2738e-04  2.0785e-02  8.6721e-04  2.9242e-04  1.3960e-04  0:01:33 1477
   524  8.8753e-04  1.0525e-03  5.3837e-04  2.0659e-02  8.8124e-04  2.8467e-04  1.3549e-04  0:06:10 1476
   525  8.9822e-04  1.0327e-03  5.5041e-04  2.0459e-02  8.9177e-04  2.7889e-04  1.3242e-04  0:04:55 1475
   526  9.0536e-04  1.0102e-03  5.6382e-04  2.0181e-02  8.9877e-04  2.7486e-04  1.3009e-04  0:03:56 1474
   527  9.0889e-04  9.8534e-04  5.7887e-04  1.9839e-02  9.0216e-04  2.7147e-04  1.2771e-04  0:03:09 1473
   528  9.0879e-04  9.5882e-04  5.9577e-04  1.9429e-02  9.0193e-04  2.6955e-04  1.2567e-04  0:02:31 1472

  iter  continuity  x-velocity  y-velocity  z-velocity      energy           k       omega     time/iter
   529  9.0508e-04  9.3137e-04  6.1465e-04  1.8943e-02  8.9811e-04  2.6818e-04  1.2332e-04  0:02:01 1471
   530  8.9784e-04  9.0386e-04  6.3556e-04  1.8399e-02  8.9076e-04  2.6750e-04  1.2139e-04  0:01:36 1470
   531  8.8713e-04  8.7724e-04  6.5847e-04  1.7813e-02  8.7996e-04  2.6726e-04  1.2012e-04  0:01:17 1469
   532  8.7304e-04  8.5251e-04  6.8320e-04  1.7190e-02  8.6579e-04  2.6727e-04  1.1855e-04  0:05:55 1468
   533  8.5572e-04  8.3085e-04  7.0891e-04  1.6534e-02  8.4841e-04  2.6737e-04  1.1816e-04  0:04:44 1467
   534  8.3538e-04  8.1422e-04  7.3637e-04  1.5854e-02  8.2802e-04  2.6775e-04  1.1787e-04  0:03:47 1466
   535  8.1218e-04  8.0262e-04  7.6531e-04  1.5165e-02  8.0479e-04  2.6758e-04  1.1816e-04  0:03:02 1465
   536  7.8632e-04  7.9683e-04  7.9530e-04  1.4461e-02  7.7891e-04  2.6725e-04  1.1907e-04  0:02:25 1464
   537  7.5803e-04  7.9758e-04  8.2590e-04  1.3762e-02  7.5061e-04  2.6642e-04  1.2012e-04  0:01:56 1463
   538  7.2757e-04  8.0531e-04  8.5674e-04  1.3066e-02  7.2016e-04  2.6526e-04  1.2050e-04  0:01:33 1462
   539  6.9521e-04  8.2000e-04  8.8746e-04  1.2381e-02  6.8782e-04  2.6392e-04  1.1908e-04  0:01:14 1461

  iter  continuity  x-velocity  y-velocity  z-velocity      energy           k       omega     time/iter
   540  6.6124e-04  8.4127e-04  9.1772e-04  1.1709e-02  6.5389e-04  2.6225e-04  1.1793e-04  0:05:51 1460
   541  6.2596e-04  8.6847e-04  9.4719e-04  1.1061e-02  6.1866e-04  2.6043e-04  1.1692e-04  0:04:41 1459
   542  5.8968e-04  9.0075e-04  9.7555e-04  1.0448e-02  5.8245e-04  2.5837e-04  1.1641e-04  0:03:45 1458
   543  5.5276e-04  9.3714e-04  1.0025e-03  9.8728e-03  5.4561e-04  2.5603e-04  1.1614e-04  0:02:59 1457
   544  5.1555e-04  9.7664e-04  1.0277e-03  9.3434e-03  5.0850e-04  2.5343e-04  1.1607e-04  0:02:23 1456
   545  4.7844e-04  1.0183e-03  1.0510e-03  8.8664e-03  4.7150e-04  2.5048e-04  1.1571e-04  0:01:55 1455
   546  4.4186e-04  1.0611e-03  1.0721e-03  8.4430e-03  4.3506e-04  2.4729e-04  1.1512e-04  0:01:32 1454
   547  4.0624e-04  1.1043e-03  1.0908e-03  8.0764e-03  3.9960e-04  2.4382e-04  1.1401e-04  0:01:13 1453
   548  3.7158e-04  1.1437e-03  1.1063e-03  7.7612e-03  3.6512e-04  2.4009e-04  1.1300e-04  0:05:49 1452
   549  3.3800e-04  1.1780e-03  1.1188e-03  7.4984e-03  3.3174e-04  2.3603e-04  1.1199e-04  0:04:39 1451
   550  3.0770e-04  1.2155e-03  1.1293e-03  7.2824e-03  3.0171e-04  2.3169e-04  1.1088e-04  0:03:43 1450

  iter  continuity  x-velocity  y-velocity  z-velocity      energy           k       omega     time/iter
   551  2.8086e-04  1.2522e-03  1.1369e-03  7.1156e-03  2.7520e-04  2.7702e-04  1.4415e-04  0:02:58 1449
   552  4.8433e-04  1.3003e-03  1.1511e-03  6.9967e-03  4.8156e-04  2.4673e-04  1.2678e-04  0:02:23 1448
   553  4.1063e-04  1.3232e-03  1.1450e-03  6.9181e-03  4.0786e-04  2.3656e-04  1.2134e-04  0:01:54 1447
   554  3.5158e-04  1.3714e-03  1.1533e-03  6.8731e-03  3.4889e-04  2.2481e-04  1.1520e-04  0:01:31 1446
   555  3.4741e-04  1.3753e-03  1.1384e-03  6.8523e-03  3.4517e-04  2.1778e-04  1.1200e-04  0:06:02 1445
   556  2.9971e-04  1.3969e-03  1.1285e-03  6.8593e-03  2.9758e-04  2.1101e-04  1.0893e-04  0:04:49 1444
   557  4.0915e-04  1.4336e-03  1.1296e-03  6.8852e-03  4.0790e-04  2.0480e-04  1.0633e-04  0:03:51 1443
   558  3.8548e-04  1.4277e-03  1.1041e-03  6.9219e-03  3.8441e-04  1.9982e-04  1.0477e-04  0:03:05 1442
   559  2.9281e-04  1.4372e-03  1.0861e-03  6.9633e-03  2.9167e-04  1.9487e-04  1.0321e-04  0:02:28 1441
   560  2.4671e-04  1.4400e-03  1.0654e-03  7.0137e-03  2.4561e-04  1.9044e-04  1.0219e-04  0:01:58 1440
   561  2.4649e-04  1.4379e-03  1.0424e-03  7.0651e-03  2.4559e-04  1.8630e-04  1.0053e-04  0:01:34 1439

  iter  continuity  x-velocity  y-velocity  z-velocity      energy           k       omega     time/iter
   562  2.5515e-04  1.4321e-03  1.0171e-03  7.1166e-03  2.5440e-04  1.8252e-04  1.0004e-04  0:01:16 1438
   563  2.6292e-04  1.4225e-03  9.8970e-04  7.1669e-03  2.6226e-04  1.7936e-04  9.9780e-05  0:01:00 1437
   564  2.6944e-04  1.4088e-03  9.6017e-04  7.2156e-03  2.6881e-04  1.7684e-04  1.0053e-04  0:05:35 1436
   565  2.7484e-04  1.3913e-03  9.2874e-04  7.2596e-03  2.7421e-04  1.7477e-04  1.0059e-04  0:04:28 1435
   566  2.7897e-04  1.3702e-03  8.9565e-04  7.3054e-03  2.7830e-04  1.7310e-04  1.0128e-04  0:03:34 1434
   567  2.8165e-04  1.3456e-03  8.6112e-04  7.3493e-03  2.8090e-04  1.7189e-04  1.0157e-04  0:02:51 1433
   568  2.8277e-04  1.3177e-03  8.2540e-04  7.3957e-03  2.8192e-04  1.7109e-04  1.0224e-04  0:02:17 1432
   569  2.8237e-04  1.2870e-03  7.8874e-04  7.4466e-03  2.8141e-04  1.7058e-04  1.0282e-04  0:01:50 1431
   570  2.8057e-04  1.2537e-03  7.5140e-04  7.5009e-03  2.7946e-04  1.7038e-04  1.0299e-04  0:01:28 1430
   571  2.7754e-04  1.2183e-03  7.1363e-04  7.5592e-03  2.7627e-04  1.7007e-04  1.0285e-04  0:05:56 1429
   572  2.7351e-04  1.1811e-03  6.7572e-04  7.6313e-03  2.7207e-04  1.6967e-04  1.0203e-04  0:04:44 1428

  iter  continuity  x-velocity  y-velocity  z-velocity      energy           k       omega     time/iter
   573  2.6878e-04  1.1426e-03  6.3795e-04  7.7129e-03  2.6714e-04  1.6928e-04  1.0145e-04  0:03:47 1427
   574  2.6367e-04  1.1031e-03  6.0058e-04  7.8018e-03  2.6182e-04  1.6906e-04  1.0099e-04  0:03:02 1426
   575  2.5855e-04  1.0632e-03  5.6390e-04  7.8999e-03  2.5647e-04  1.6874e-04  1.0026e-04  0:02:25 1425
   576  2.5383e-04  1.0231e-03  5.2821e-04  8.0124e-03  2.5152e-04  1.6823e-04  9.9375e-05  0:01:56 1424
   577  2.4995e-04  9.8343e-04  4.9379e-04  8.1389e-03  2.4739e-04  1.6755e-04  9.7691e-05  0:01:33 1423
   578  2.4735e-04  9.4454e-04  4.6093e-04  8.2752e-03  2.4454e-04  1.6672e-04  9.5610e-05  0:01:14 1422
   579  2.4643e-04  9.0687e-04  4.2993e-04  8.4190e-03  2.4338e-04  2.0379e-04  1.2062e-04  0:05:44 1421
   580  2.4754e-04  8.7083e-04  4.0109e-04  8.5739e-03  2.4426e-04  1.8696e-04  1.1088e-04  0:04:35 1420
   581  2.5092e-04  8.3675e-04  3.7471e-04  8.7341e-03  2.4744e-04  1.7934e-04  1.0678e-04  0:03:40 1419
   582  2.5670e-04  8.0495e-04  3.5108e-04  8.8830e-03  2.5304e-04  1.7364e-04  1.0339e-04  0:02:56 1418
   583  2.6485e-04  7.7567e-04  3.3046e-04  9.0435e-03  2.6104e-04  1.6944e-04  1.0111e-04  0:02:20 1417

  iter  continuity  x-velocity  y-velocity  z-velocity      energy           k       omega     time/iter
   584  2.7522e-04  7.4907e-04  3.1305e-04  9.2027e-03  2.7130e-04  1.6608e-04  9.8972e-05  0:01:52 1416
   585  2.8758e-04  7.2510e-04  2.9911e-04  9.3578e-03  2.8356e-04  1.6392e-04  9.7323e-05  0:01:30 1415
   586  3.0161e-04  7.0418e-04  2.8852e-04  9.5061e-03  2.9752e-04  1.6190e-04  9.5871e-05  0:01:12 1414
   587  3.1698e-04  6.8606e-04  2.8124e-04  9.6454e-03  3.1281e-04  1.6027e-04  9.4316e-05  0:05:40 1413
   588  3.3331e-04  6.7050e-04  2.7713e-04  9.7713e-03  3.2909e-04  1.5897e-04  9.3362e-05  0:04:32 1412
   589  3.5029e-04  6.5758e-04  2.7587e-04  9.8787e-03  3.4600e-04  1.5778e-04  9.2719e-05  0:03:37 1411
   590  3.6755e-04  6.4683e-04  2.7723e-04  9.9692e-03  3.6321e-04  1.5645e-04  9.2013e-05  0:02:54 1410
   591  3.8478e-04  6.3716e-04  2.8071e-04  1.0041e-02  3.8038e-04  1.5515e-04  9.1401e-05  0:02:19 1409
   592  4.0177e-04  6.2876e-04  2.8613e-04  1.0089e-02  3.9730e-04  1.5399e-04  9.0602e-05  0:01:51 1408
   593  4.1828e-04  6.2124e-04  2.9313e-04  1.0118e-02  4.1374e-04  1.5297e-04  8.9863e-05  0:01:29 1407
   594  4.3408e-04  6.1435e-04  3.0141e-04  1.0124e-02  4.2948e-04  1.5208e-04  8.9231e-05  0:01:11 1406

  iter  continuity  x-velocity  y-velocity  z-velocity      energy           k       omega     time/iter
   595  4.4901e-04  6.0789e-04  3.1074e-04  1.0106e-02  4.4433e-04  1.5139e-04  8.8519e-05  0:05:38 1405
   596  4.6334e-04  6.0182e-04  3.2103e-04  1.0060e-02  4.5860e-04  1.5096e-04  8.8100e-05  0:04:30 1404
   597  4.7524e-04  5.9521e-04  3.3192e-04  9.9941e-03  4.7042e-04  1.5072e-04  8.7746e-05  0:03:36 1403
   598  4.8643e-04  5.8839e-04  3.4360e-04  9.9045e-03  4.8152e-04  1.5076e-04  8.7415e-05  0:02:53 1402
   599  4.9653e-04  5.8119e-04  3.5590e-04  9.7842e-03  4.9154e-04  1.5084e-04  8.7239e-05  0:02:18 1401
   600  5.0517e-04  5.7351e-04  3.6879e-04  9.6388e-03  5.0011e-04  1.5117e-04  8.6813e-05  0:01:50 1400
   601  5.1220e-04  5.6530e-04  3.8226e-04  9.4692e-03  5.0706e-04  1.5146e-04  8.6583e-05  0:01:28 1399
   602  5.1757e-04  5.5661e-04  3.9630e-04  9.2745e-03  5.1236e-04  1.5176e-04  8.5719e-05  0:01:10 1398
   603  5.2127e-04  5.4754e-04  4.1088e-04  9.0564e-03  5.1598e-04  1.5193e-04  8.4629e-05  0:05:36 1397
   604  5.2330e-04  5.3826e-04  4.2599e-04  8.8188e-03  5.1794e-04  1.5194e-04  8.4331e-05  0:04:28 1396
   605  5.2367e-04  5.2904e-04  4.4165e-04  8.5624e-03  5.1825e-04  1.5184e-04  8.3804e-05  0:03:35 1395

  iter  continuity  x-velocity  y-velocity  z-velocity      energy           k       omega     time/iter
   606  5.2239e-04  5.2013e-04  4.5768e-04  8.2904e-03  5.1690e-04  1.5143e-04  8.3360e-05  0:02:52 1394
   607  5.1948e-04  5.1178e-04  4.7410e-04  8.0061e-03  5.1393e-04  1.5086e-04  8.3116e-05  0:02:17 1393
   608  5.1497e-04  5.0431e-04  4.9085e-04  7.7124e-03  5.0937e-04  1.5022e-04  8.2866e-05  0:01:50 1392
   609  5.0891e-04  4.9806e-04  5.0786e-04  7.4096e-03  5.0326e-04  1.4961e-04  8.2570e-05  0:01:28 1391
   610  5.0138e-04  4.9342e-04  5.2505e-04  7.1084e-03  4.9568e-04  1.4908e-04  8.2366e-05  0:01:10 1390
   611  4.9242e-04  4.9073e-04  5.4231e-04  6.8032e-03  4.8668e-04  1.4875e-04  8.2067e-05  0:05:34 1389
   612  4.8217e-04  4.9029e-04  5.5952e-04  6.5032e-03  4.7640e-04  1.4836e-04  8.1928e-05  0:04:27 1388
   613  4.7073e-04  4.9232e-04  5.7658e-04  6.2121e-03  4.6492e-04  1.4794e-04  8.1658e-05  0:03:33 1387
   614  4.5818e-04  4.9690e-04  5.9336e-04  5.9360e-03  4.5235e-04  1.4738e-04  8.1541e-05  0:02:51 1386
   615  4.4464e-04  5.0408e-04  6.0975e-04  5.6720e-03  4.3878e-04  1.4669e-04  8.1385e-05  0:02:16 1385
   616  4.3021e-04  5.1380e-04  6.2562e-04  5.4259e-03  4.2433e-04  1.4582e-04  8.1263e-05  0:01:49 1384

  iter  continuity  x-velocity  y-velocity  z-velocity      energy           k       omega     time/iter
   617  4.1500e-04  5.2589e-04  6.4087e-04  5.2037e-03  4.0912e-04  1.4471e-04  8.1003e-05  0:01:27 1383
   618  3.9915e-04  5.4012e-04  6.5539e-04  5.0021e-03  3.9325e-04  1.4339e-04  8.0461e-05  0:01:10 1382
   619  3.8276e-04  5.5622e-04  6.6905e-04  4.8368e-03  3.7686e-04  1.4201e-04  7.9638e-05  0:05:32 1381
   620  3.6599e-04  5.7386e-04  6.8176e-04  4.6970e-03  3.6008e-04  1.4033e-04  7.8708e-05  0:04:25 1380
   621  3.4897e-04  5.9268e-04  6.9342e-04  4.5828e-03  3.4306e-04  1.3839e-04  7.8278e-05  0:03:32 1379
   622  3.3183e-04  6.1234e-04  7.0395e-04  4.4934e-03  3.2593e-04  1.3617e-04  7.7977e-05  0:02:50 1378
   623  3.1473e-04  6.3250e-04  7.1327e-04  4.4235e-03  3.0882e-04  1.3357e-04  7.7592e-05  0:02:16 1377
   624  2.9782e-04  6.5297e-04  7.2135e-04  4.3746e-03  2.9192e-04  1.3087e-04  7.7016e-05  0:06:24 1376
[...]
  1838  3.0668e-06  1.3829e-05  1.7521e-05  1.5231e+00  3.0420e-06  6.8083e-07  5.2890e-07  0:00:23  162
  1839  2.9737e-06  1.3787e-05  1.6710e-05  1.5098e+00  2.9497e-06  6.7759e-07  5.2783e-07  0:00:18  161
  1840  2.8635e-06  1.3677e-05  1.5783e-05  1.5037e+00  2.8402e-06  6.7358e-07  5.2685e-07  0:00:15  160
  1841  2.7411e-06  1.3505e-05  1.4774e-05  1.5079e+00  2.7183e-06  6.7017e-07  5.2544e-07  0:00:12  159
  1842  2.6127e-06  1.3280e-05  1.3721e-05  1.5150e+00  2.5906e-06  6.6768e-07  5.2486e-07  0:00:09  158
  1843  2.4847e-06  1.3011e-05  1.2667e-05  1.5272e+00  2.4631e-06  6.6498e-07  5.2411e-07  0:00:07  157
  1844  2.3619e-06  1.2707e-05  1.1659e-05  1.5467e+00  2.3409e-06  6.6226e-07  5.2342e-07  0:00:06  156
  1845  2.2481e-06  1.2372e-05  1.0746e-05  1.5803e+00  2.2275e-06  6.5902e-07  5.2310e-07  0:00:36  155
  1846  2.1462e-06  1.2015e-05  9.9831e-06  1.6042e+00  2.1258e-06  6.5588e-07  5.2216e-07  0:00:28  154
  1847  2.0585e-06  1.1645e-05  9.4237e-06  1.6329e+00  2.0381e-06  6.5242e-07  5.2119e-07  0:00:23  153
  1848  1.9871e-06  1.1274e-05  9.1155e-06  1.6646e+00  1.9665e-06  6.4872e-07  5.2042e-07  0:00:18  152

  iter  continuity  x-velocity  y-velocity  z-velocity      energy           k       omega     time/iter
  1849  1.9343e-06  1.0919e-05  9.0854e-06  1.6984e+00  1.9134e-06  6.4540e-07  5.2078e-07  0:00:14  151
  1850  1.7798e-06  1.0205e-05  9.3519e-06  1.7310e+00  1.7579e-06  6.4231e-07  5.2017e-07  0:00:11  150
  1851  1.7504e-06  9.9713e-06  9.8537e-06  1.7574e+00  1.7285e-06  6.3915e-07  5.1955e-07  0:00:09  149
  1852  1.7876e-06  9.8872e-06  1.0493e-05  1.7801e+00  1.7655e-06  6.3660e-07  5.1839e-07  0:00:07  148
  1853  1.8519e-06  9.8437e-06  1.1268e-05  1.8038e+00  1.8295e-06  6.3337e-07  5.1653e-07  0:00:06  147
  1854  1.9353e-06  9.8507e-06  1.2137e-05  1.8383e+00  1.9126e-06  6.3002e-07  5.1573e-07  0:00:05  146
  1855  2.0349e-06  9.9346e-06  1.3052e-05  1.8487e+00  2.0120e-06  6.2684e-07  5.1420e-07  0:00:33  145
  1856  2.1428e-06  1.0085e-05  1.3974e-05  1.8611e+00  2.1197e-06  6.2397e-07  5.1302e-07  0:00:26  144
  1857  2.2531e-06  1.0282e-05  1.4875e-05  1.8632e+00  2.2298e-06  6.2097e-07  5.1120e-07  0:00:21  143
  1858  2.3635e-06  1.0541e-05  1.5734e-05  1.8612e+00  2.3401e-06  6.1827e-07  5.0956e-07  0:00:16  142
  1859  2.4723e-06  1.0856e-05  1.6533e-05  1.8552e+00  2.4488e-06  6.1615e-07  5.0836e-07  0:00:13  141

  iter  continuity  x-velocity  y-velocity  z-velocity      energy           k       omega     time/iter
  1860  2.5743e-06  1.1172e-05  1.7259e-05  1.8439e+00  2.5506e-06  6.1402e-07  5.0744e-07  0:00:10  140
  1861  2.6672e-06  1.1476e-05  1.7899e-05  1.8287e+00  2.6434e-06  6.1184e-07  5.0707e-07  0:00:08  139
  1862  2.7493e-06  1.1758e-05  1.8442e-05  1.8065e+00  2.7254e-06  6.0971e-07  5.0609e-07  0:00:07  138
  1863  2.8193e-06  1.2010e-05  1.8880e-05  1.7825e+00  2.7953e-06  6.0725e-07  5.0421e-07  0:00:33  137
  1864  2.8764e-06  1.2225e-05  1.9205e-05  1.7557e+00  2.8524e-06  6.0510e-07  5.0242e-07  0:00:26  136
  1865  2.6941e-06  1.2249e-05  1.7953e-05  1.7264e+00  2.6700e-06  6.0363e-07  4.9989e-07  0:00:21  135
  1866  2.9862e-06  1.2710e-05  2.0326e-05  1.6947e+00  2.9667e-06  6.0328e-07  4.9762e-07  0:00:16  134
  1867  3.3122e-06  1.3324e-05  2.2551e-05  1.6617e+00  3.2906e-06  6.0212e-07  4.9424e-07  0:00:13  133
  1868  3.5438e-06  1.4135e-05  2.3962e-05  1.6288e+00  3.5188e-06  6.0152e-07  4.9126e-07  0:00:10  132
  1869  3.6615e-06  1.4814e-05  2.4479e-05  1.5971e+00  3.6336e-06  6.0104e-07  4.8941e-07  0:00:08  131
  1870  3.6915e-06  1.5261e-05  2.4355e-05  1.5710e+00  3.6626e-06  6.0044e-07  4.8682e-07  0:00:06  130

  iter  continuity  x-velocity  y-velocity  z-velocity      energy           k       omega     time/iter
  1871  3.6629e-06  1.5432e-05  2.3831e-05  1.5460e+00  3.6344e-06  5.9974e-07  4.8517e-07  0:00:05  129
  1872  3.5976e-06  1.5380e-05  2.3015e-05  1.5247e+00  3.5703e-06  5.9906e-07  4.8517e-07  0:00:04  128
  1873  3.5019e-06  1.5153e-05  2.1953e-05  1.5088e+00  3.4762e-06  5.9803e-07  4.8416e-07  0:00:03  127
  1874  3.3762e-06  1.4798e-05  2.0677e-05  1.4993e+00  3.3519e-06  5.9632e-07  4.8277e-07  0:00:28  126
  1875  3.2243e-06  1.4353e-05  1.9223e-05  1.4998e+00  3.2012e-06  5.9444e-07  4.8213e-07  0:00:22  125
  1876  3.0532e-06  1.3852e-05  1.7635e-05  1.5043e+00  3.0314e-06  5.9304e-07  4.8226e-07  0:00:17  124
  1877  2.8710e-06  1.3326e-05  1.5962e-05  1.5146e+00  2.8504e-06  5.9165e-07  4.8248e-07  0:00:14  123
  1878  2.6856e-06  1.2797e-05  1.4257e-05  1.5293e+00  2.6662e-06  5.8951e-07  4.8231e-07  0:00:11  122
  1879  2.5045e-06  1.2285e-05  1.2584e-05  1.5646e+00  2.4863e-06  5.8735e-07  4.8256e-07  0:00:09  121
  1880  2.3347e-06  1.1803e-05  1.1021e-05  1.5858e+00  2.3174e-06  5.8465e-07  4.8199e-07  0:00:07  120
  1881  2.1831e-06  1.1363e-05  9.6752e-06  1.6131e+00  2.1666e-06  5.8175e-07  4.8154e-07  0:00:06  119

  iter  continuity  x-velocity  y-velocity  z-velocity      energy           k       omega     time/iter
  1882  2.0569e-06  1.0978e-05  8.6882e-06  1.6435e+00  2.0407e-06  5.7842e-07  4.8081e-07  0:00:04  118
  1883  1.9634e-06  1.0660e-05  8.2109e-06  1.6766e+00  1.9472e-06  5.7503e-07  4.8080e-07  0:00:03  117
  1884  1.8662e-06  1.0268e-05  8.3001e-06  1.7095e+00  1.8496e-06  5.7163e-07  4.8003e-07  0:00:26  116
  1885  1.8585e-06  1.0210e-05  9.0122e-06  1.7390e+00  1.8419e-06  5.6884e-07  4.7931e-07  0:00:21  115
  1886  1.9317e-06  1.0325e-05  1.0116e-05  1.7610e+00  1.9148e-06  5.6659e-07  4.7802e-07  0:00:16  114
  1887  2.0321e-06  1.0440e-05  1.1475e-05  1.7849e+00  2.0144e-06  5.6371e-07  4.7671e-07  0:00:13  113
  1888  2.1532e-06  1.0573e-05  1.2980e-05  1.8136e+00  2.1345e-06  5.6134e-07  4.7594e-07  0:00:10  112
  1889  2.3000e-06  1.0778e-05  1.4545e-05  1.8338e+00  2.2803e-06  5.5897e-07  4.7481e-07  0:00:08  111
  1890  2.4687e-06  1.1065e-05  1.6112e-05  1.8465e+00  2.4481e-06  5.5737e-07  4.7406e-07  0:00:06  110
  1891  2.6486e-06  1.1415e-05  1.7638e-05  1.8531e+00  2.6271e-06  5.5588e-07  4.7286e-07  0:00:05  109
  1892  2.8277e-06  1.1734e-05  1.9090e-05  1.8521e+00  2.8054e-06  5.5443e-07  4.7201e-07  0:00:04  108

  iter  continuity  x-velocity  y-velocity  z-velocity      energy           k       omega     time/iter
  1893  3.0059e-06  1.2132e-05  2.0446e-05  1.8484e+00  2.9829e-06  5.5472e-07  4.7133e-07  0:00:03  107
  1894  3.1766e-06  1.2563e-05  2.1688e-05  1.8382e+00  3.1530e-06  5.5530e-07  4.7126e-07  0:00:03  106
  1895  3.3356e-06  1.3001e-05  2.2801e-05  1.8245e+00  3.3115e-06  5.5605e-07  4.7143e-07  0:00:02  105
  1896  3.4801e-06  1.3429e-05  2.3768e-05  1.8056e+00  3.4555e-06  5.5702e-07  4.7230e-07  0:00:22  104
  1897  3.6080e-06  1.3837e-05  2.4579e-05  1.7828e+00  3.5829e-06  5.5820e-07  4.7281e-07  0:00:18  103
  1898  3.7176e-06  1.4216e-05  2.5220e-05  1.7565e+00  3.6923e-06  5.5955e-07  4.7293e-07  0:00:14  102
  1899  3.7620e-06  1.4508e-05  2.5373e-05  1.7281e+00  3.7365e-06  5.6133e-07  4.7243e-07  0:00:11  101
  1900  3.0405e-06  1.4137e-05  2.0912e-05  1.6975e+00  3.0178e-06  5.6269e-07  4.7173e-07  0:00:09  100
  1901  2.9534e-06  1.3229e-05  1.9432e-05  1.6650e+00  2.9337e-06  5.6286e-07  4.7012e-07  0:00:07   99
  1902  3.0375e-06  1.3010e-05  1.9223e-05  1.6323e+00  3.0186e-06  5.6307e-07  4.6862e-07  0:00:06   98
  1903  3.0999e-06  1.3197e-05  1.9145e-05  1.6008e+00  3.0799e-06  5.6281e-07  4.6805e-07  0:00:04   97

  iter  continuity  x-velocity  y-velocity  z-velocity      energy           k       omega     time/iter
  1904  3.1000e-06  1.3476e-05  1.8868e-05  1.5713e+00  3.0790e-06  5.6209e-07  4.6688e-07  0:00:03   96
  1905  3.0560e-06  1.3677e-05  1.8422e-05  1.5460e+00  3.0349e-06  5.6061e-07  4.6587e-07  0:00:03   95
  1906  2.9874e-06  1.3732e-05  1.7841e-05  1.5232e+00  2.9668e-06  5.5876e-07  4.6578e-07  0:00:02   94
  1907  2.9030e-06  1.3707e-05  1.7125e-05  1.5058e+00  2.8833e-06  5.5663e-07  4.6567e-07  0:00:20   93
  1908  2.8006e-06  1.3616e-05  1.6281e-05  1.4946e+00  2.7818e-06  5.5363e-07  4.6452e-07  0:00:16   92
  1909  2.6822e-06  1.3461e-05  1.5334e-05  1.4925e+00  2.6641e-06  5.5005e-07  4.6337e-07  0:00:13   91
  1910  2.5534e-06  1.3251e-05  1.4318e-05  1.4981e+00  2.5360e-06  5.4766e-07  4.6280e-07  0:00:10   90
  1911  2.4208e-06  1.2993e-05  1.3274e-05  1.5070e+00  2.4042e-06  5.4570e-07  4.6277e-07  0:00:08   89
  1912  2.2905e-06  1.2698e-05  1.2248e-05  1.5204e+00  2.2746e-06  5.4324e-07  4.6212e-07  0:00:06   88
  1913  2.1670e-06  1.2373e-05  1.1287e-05  1.5472e+00  2.1519e-06  5.4100e-07  4.6187e-07  0:00:05   87
  1914  2.0540e-06  1.2023e-05  1.0441e-05  1.5742e+00  2.0395e-06  5.3812e-07  4.6132e-07  0:00:04   86

  iter  continuity  x-velocity  y-velocity  z-velocity      energy           k       omega     time/iter
  1915  1.9542e-06  1.1656e-05  9.7638e-06  1.5998e+00  1.9399e-06  5.3550e-07  4.6060e-07  0:00:03   85
  1916  1.8698e-06  1.1283e-05  9.3057e-06  1.6293e+00  1.8556e-06  5.3273e-07  4.6014e-07  0:00:02   84
  1917  1.8034e-06  1.0917e-05  9.1065e-06  1.6616e+00  1.7890e-06  5.2971e-07  4.6030e-07  0:00:02   83
  1918  1.7438e-06  1.0529e-05  9.1779e-06  1.6944e+00  1.7290e-06  5.2718e-07  4.6085e-07  0:00:02   82
  1919  1.5850e-06  9.8590e-06  9.5595e-06  1.7253e+00  1.5698e-06  5.2486e-07  4.6070e-07  0:00:17   81
  1920  1.5860e-06  9.7070e-06  1.0100e-05  1.7483e+00  1.5707e-06  5.2256e-07  4.5973e-07  0:00:14   80
  1921  1.6406e-06  9.6496e-06  1.0778e-05  1.7711e+00  1.6249e-06  5.2006e-07  4.5930e-07  0:00:11   79
  1922  1.7198e-06  9.6360e-06  1.1577e-05  1.7942e+00  1.7035e-06  5.1759e-07  4.5793e-07  0:00:09   78
  1923  1.8163e-06  9.6775e-06  1.2450e-05  1.8270e+00  1.7995e-06  5.1493e-07  4.5691e-07  0:00:07   77
  1924  1.9281e-06  9.8030e-06  1.3355e-05  1.8369e+00  1.9108e-06  5.1240e-07  4.5589e-07  0:00:05   76
  1925  2.0464e-06  9.9970e-06  1.4258e-05  1.8473e+00  2.0286e-06  5.1014e-07  4.5468e-07  0:00:04   75

  iter  continuity  x-velocity  y-velocity  z-velocity      energy           k       omega     time/iter
  1926  2.1646e-06  1.0230e-05  1.5132e-05  1.8466e+00  2.1465e-06  5.0792e-07  4.5303e-07  0:00:03   74
  1927  2.2812e-06  1.0526e-05  1.5957e-05  1.8443e+00  2.2627e-06  5.0610e-07  4.5135e-07  0:00:03   73
  1928  2.3939e-06  1.0867e-05  1.6718e-05  1.8356e+00  2.3751e-06  5.0452e-07  4.5091e-07  0:00:02   72
  1929  2.4980e-06  1.1202e-05  1.7404e-05  1.8231e+00  2.4789e-06  5.0291e-07  4.5020e-07  0:00:02   71
  1930  2.5915e-06  1.1518e-05  1.8000e-05  1.8061e+00  2.5721e-06  5.0124e-07  4.4949e-07  0:00:01   70
  1931  2.6728e-06  1.1807e-05  1.8499e-05  1.7843e+00  2.6533e-06  4.9968e-07  4.4908e-07  0:00:15   69
  1932  2.7410e-06  1.2060e-05  1.8891e-05  1.7584e+00  2.7213e-06  4.9796e-07  4.4749e-07  0:00:12   68
  1933  2.7957e-06  1.2271e-05  1.9168e-05  1.7311e+00  2.7758e-06  4.9680e-07  4.4595e-07  0:00:09   67
  1934  2.6209e-06  1.2422e-05  1.8244e-05  1.7013e+00  2.6032e-06  4.9592e-07  4.4332e-07  0:00:07   66
  1935  3.0054e-06  1.2864e-05  2.0982e-05  1.6694e+00  2.9893e-06  4.9626e-07  4.4108e-07  0:00:06   65
  1936  3.3132e-06  1.3597e-05  2.2979e-05  1.6368e+00  3.2940e-06  4.9597e-07  4.3786e-07  0:00:05   64

  iter  continuity  x-velocity  y-velocity  z-velocity      energy           k       omega     time/iter
  1937  3.5083e-06  1.4382e-05  2.4066e-05  1.6050e+00  3.4856e-06  4.9612e-07  4.3591e-07  0:00:04   63
  1938  3.5936e-06  1.4975e-05  2.4338e-05  1.5746e+00  3.5685e-06  4.9618e-07  4.3379e-07  0:00:03   62
  1939  3.6042e-06  1.5308e-05  2.4075e-05  1.5484e+00  3.5785e-06  4.9601e-07  4.3181e-07  0:00:02   61
  1940  3.5608e-06  1.5375e-05  2.3455e-05  1.5245e+00  3.5359e-06  4.9600e-07  4.3100e-07  0:00:02   60
  1941  3.4847e-06  1.5238e-05  2.2558e-05  1.5052e+00  3.4612e-06  4.9562e-07  4.3127e-07  0:00:01   59
  1942  3.3774e-06  1.4942e-05  2.1422e-05  1.4921e+00  3.3554e-06  4.9499e-07  4.3031e-07  0:00:01   58
  1943  3.2404e-06  1.4531e-05  2.0080e-05  1.4861e+00  3.2198e-06  4.9359e-07  4.2923e-07  0:00:12   57
  1944  3.0790e-06  1.4042e-05  1.8575e-05  1.4912e+00  3.0598e-06  4.9266e-07  4.2887e-07  0:00:10   56
  1945  2.9010e-06  1.3509e-05  1.6952e-05  1.4979e+00  2.8831e-06  4.9198e-07  4.2935e-07  0:00:08   55
  1946  2.7146e-06  1.2961e-05  1.5262e-05  1.5098e+00  2.6982e-06  4.9090e-07  4.2937e-07  0:00:06   54
  1947  2.5277e-06  1.2420e-05  1.3561e-05  1.5268e+00  2.5127e-06  4.8929e-07  4.2975e-07  0:00:05   53

  iter  continuity  x-velocity  y-velocity  z-velocity      energy           k       omega     time/iter
  1948  2.3475e-06  1.1904e-05  1.1917e-05  1.5638e+00  2.3338e-06  4.8731e-07  4.3014e-07  0:00:04   52
  1949  2.1810e-06  1.1427e-05  1.0416e-05  1.5866e+00  2.1685e-06  4.8526e-07  4.2962e-07  0:00:03   51
  1950  2.0353e-06  1.1000e-05  9.1771e-06  1.6147e+00  2.0236e-06  4.8265e-07  4.2913e-07  0:00:02   50
  1951  1.9180e-06  1.0635e-05  8.3496e-06  1.6458e+00  1.9066e-06  4.7955e-07  4.2900e-07  0:00:02   49
  1952  1.8364e-06  1.0344e-05  8.0739e-06  1.6791e+00  1.8250e-06  4.7677e-07  4.2964e-07  0:00:01   48
  1953  1.7410e-06  9.9697e-06  8.3706e-06  1.7111e+00  1.7293e-06  4.7434e-07  4.2904e-07  0:00:01   47
  1954  1.7742e-06  1.0027e-05  9.2433e-06  1.7369e+00  1.7624e-06  4.7194e-07  4.2831e-07  0:00:01   46
  1955  1.8636e-06  1.0158e-05  1.0445e-05  1.7592e+00  1.8511e-06  4.7035e-07  4.2760e-07  0:00:10   45
  1956  1.9771e-06  1.0294e-05  1.1860e-05  1.7829e+00  1.9634e-06  4.6792e-07  4.2592e-07  0:00:08   44
  1957  2.1121e-06  1.0464e-05  1.3384e-05  1.8170e+00  2.0971e-06  4.6606e-07  4.2560e-07  0:00:06   43
  1958  2.2700e-06  1.0707e-05  1.4947e-05  1.8278e+00  2.2537e-06  4.6442e-07  4.2470e-07  0:00:05   42

  iter  continuity  x-velocity  y-velocity  z-velocity      energy           k       omega     time/iter
  1959  2.4469e-06  1.1032e-05  1.6494e-05  1.8403e+00  2.4296e-06  4.6334e-07  4.2404e-07  0:00:04   41
  1960  2.6318e-06  1.1412e-05  1.7989e-05  1.8426e+00  2.6134e-06  4.6238e-07  4.2301e-07  0:00:03   40
  1961  2.8127e-06  1.1748e-05  1.9403e-05  1.8413e+00  2.7934e-06  4.6179e-07  4.2223e-07  0:00:02   39
  1962  2.9911e-06  1.2170e-05  2.0714e-05  1.8354e+00  2.9708e-06  4.6238e-07  4.2189e-07  0:00:02   38
  1963  3.1598e-06  1.2613e-05  2.1907e-05  1.8244e+00  3.1388e-06  4.6365e-07  4.2200e-07  0:00:01   37
  1964  3.3155e-06  1.3056e-05  2.2965e-05  1.8094e+00  3.2938e-06  4.6503e-07  4.2276e-07  0:00:01   36
  1965  3.4555e-06  1.3485e-05  2.3876e-05  1.7883e+00  3.4333e-06  4.6644e-07  4.2375e-07  0:00:01   35
  1966  3.5780e-06  1.3888e-05  2.4626e-05  1.7649e+00  3.5553e-06  4.6791e-07  4.2426e-07  0:00:01   34
  1967  3.6818e-06  1.4259e-05  2.5206e-05  1.7383e+00  3.6588e-06  4.7002e-07  4.2469e-07  0:00:07   33
  1968  3.2942e-06  1.4123e-05  2.2552e-05  1.7094e+00  3.2709e-06  4.7256e-07  4.2417e-07  0:00:05   32
  1969  2.8789e-06  1.3581e-05  1.9784e-05  1.6784e+00  2.8602e-06  4.7394e-07  4.2378e-07  0:00:04   31

  iter  continuity  x-velocity  y-velocity  z-velocity      energy           k       omega     time/iter
  1970  2.8855e-06  1.2957e-05  1.8973e-05  1.6460e+00  2.8693e-06  4.7446e-07  4.2236e-07  0:00:03   30
  1971  2.9784e-06  1.2924e-05  1.8944e-05  1.6136e+00  2.9622e-06  4.7503e-07  4.2089e-07  0:00:03   29
  1972  3.0218e-06  1.3168e-05  1.8849e-05  1.5828e+00  3.0043e-06  4.7477e-07  4.2050e-07  0:00:02   28
  1973  3.0059e-06  1.3430e-05  1.8539e-05  1.5552e+00  2.9876e-06  4.7410e-07  4.1985e-07  0:00:02   27
  1974  2.9515e-06  1.3570e-05  1.8064e-05  1.5303e+00  2.9333e-06  4.7292e-07  4.1932e-07  0:00:01   26
  1975  2.8775e-06  1.3588e-05  1.7452e-05  1.5092e+00  2.8600e-06  4.7135e-07  4.1969e-07  0:00:01   25
  1976  2.7869e-06  1.3529e-05  1.6703e-05  1.4940e+00  2.7703e-06  4.6931e-07  4.1950e-07  0:00:05   24
  1977  2.6785e-06  1.3405e-05  1.5834e-05  1.4852e+00  2.6628e-06  4.6636e-07  4.1844e-07  0:00:04   23
  1978  2.5555e-06  1.3219e-05  1.4873e-05  1.4875e+00  2.5406e-06  4.6348e-07  4.1726e-07  0:00:03   22
  1979  2.4240e-06  1.2981e-05  1.3856e-05  1.4923e+00  2.4100e-06  4.6176e-07  4.1696e-07  0:00:02   21
  1980  2.2906e-06  1.2700e-05  1.2827e-05  1.5031e+00  2.2775e-06  4.6006e-07  4.1728e-07  0:00:02   20

  iter  continuity  x-velocity  y-velocity  z-velocity      energy           k       omega     time/iter
  1981  2.1608e-06  1.2386e-05  1.1831e-05  1.5181e+00  2.1485e-06  4.5796e-07  4.1694e-07  0:00:01   19
  1982  2.0391e-06  1.2044e-05  1.0915e-05  1.5525e+00  2.0275e-06  4.5586e-07  4.1705e-07  0:00:01   18
  1983  1.9285e-06  1.1683e-05  1.0131e-05  1.5740e+00  1.9176e-06  4.5337e-07  4.1633e-07  0:00:01   17
  1984  1.8320e-06  1.1310e-05  9.5311e-06  1.6011e+00  1.8214e-06  4.5088e-07  4.1593e-07  0:00:01   16
  1985  1.7519e-06  1.0936e-05  9.1637e-06  1.6310e+00  1.7414e-06  4.4831e-07  4.1622e-07  0:00:00   15
  1986  1.6909e-06  1.0577e-05  9.0604e-06  1.6637e+00  1.6802e-06  4.4599e-07  4.1711e-07  0:00:00   14
  1987  1.5693e-06  9.9910e-06  9.2193e-06  1.6960e+00  1.5582e-06  4.4381e-07  4.1716e-07  0:00:00   13
  1988  1.4732e-06  9.5628e-06  9.6774e-06  1.7251e+00  1.4620e-06  4.4184e-07  4.1729e-07  0:00:00   12
  1989  1.4997e-06  9.4662e-06  1.0264e-05  1.7467e+00  1.4883e-06  4.4021e-07  4.1652e-07  0:00:02   11
  1990  1.5686e-06  9.4381e-06  1.0981e-05  1.7702e+00  1.5565e-06  4.3786e-07  4.1593e-07  0:00:02   10
  1991  1.6594e-06  9.4585e-06  1.1801e-05  1.7981e+00  1.6465e-06  4.3569e-07  4.1522e-07  0:00:01    9

  iter  continuity  x-velocity  y-velocity  z-velocity      energy           k       omega     time/iter
  1992  1.7667e-06  9.5451e-06  1.2681e-05  1.8187e+00  1.7531e-06  4.3348e-07  4.1407e-07  0:00:01    8
  1993  1.8861e-06  9.7130e-06  1.3580e-05  1.8310e+00  1.8719e-06  4.3169e-07  4.1328e-07  0:00:01    7
  1994  2.0092e-06  9.9434e-06  1.4467e-05  1.8379e+00  1.9944e-06  4.2967e-07  4.1204e-07  0:00:00    6
  1995  2.1296e-06  1.0199e-05  1.5318e-05  1.8367e+00  2.1143e-06  4.2780e-07  4.1072e-07  0:00:00    5
  1996  2.2488e-06  1.0537e-05  1.6116e-05  1.8331e+00  2.2331e-06  4.2664e-07  4.0957e-07  0:00:00    4
  1997  2.3614e-06  1.0891e-05  1.6846e-05  1.8229e+00  2.3453e-06  4.2547e-07  4.0901e-07  0:00:00    3
  1998  2.4642e-06  1.1232e-05  1.7497e-05  1.8093e+00  2.4476e-06  4.2431e-07  4.0858e-07  0:00:00    2
  1999  2.5554e-06  1.1549e-05  1.8057e-05  1.7906e+00  2.5385e-06  4.2288e-07  4.0774e-07  0:00:00    1
  2000  2.6338e-06  1.1835e-05  1.8516e-05  1.7680e+00  2.6167e-06  4.2156e-07  4.0717e-07  0:00:00    0

> 
adjoint/                parallel/               server/
define/                 parametric-study/       solve/
display/                plot/                   surface/
exit                    preferences/            turbo-workflow/
file/                   print-license-usage     views/
mesh/                   report/

> /file/write-case-data project1
Fast-loading "C:\PROGRA~1\ANSYSI~1\v231\fluent\fluent23.1.0\\addons\afd\lib\hdfio.bin"
Done.

Writing to Engs-30669:"C:\Users\kebl7595\Desktop\CFD\Runs\Viscous\fine\project1.cas.h5" in NODE0 mode and compression level 1 ...
       17466 cells,     1 zone  ...
       58715 faces,     8 zones ...
       23948 nodes,     1 zone  ...
  Done.
Done.

Writing to Engs-30669:"C:\Users\kebl7595\Desktop\CFD\Runs\Viscous\fine\project1.dat.h5" in NODE0 mode and compression level 1 ...
  Writing results.
Done.

> /file/export/ascii "./surface.dat" wing te () no pressure mach-number quit no

Writing "./surface.dat"...

Writing information to ascii file ...
Done.


> /plot/plot y "pressuredata.dat" no n n pressure-coefficient no n x-coordinate wing ()

> /plot/plot y "frictiondata.dat" no n n skin-friction-coef no n x-coordinate wing ()

> /exit

Posting ANSYS Product Improvement Program performance data 
Done.
Auto-Transcript Stop Time:  10:19:50, 21 May 2024 GMT Daylight Time 
Total Transcript Time: 4 Minute 9 Second.
