Auto-Transcript Start Time:  15:13:41, 20 May 2024 GMT Daylight Time 
Current Directory: "C:\Users\kebl7595\Desktop\CFD\Runs\Actual Data\27 degree"

              Welcome to ANSYS Fluent 2023 R1

              Copyright 1987-2023 ANSYS, Inc. All Rights Reserved.
              Unauthorized use, distribution or duplication is prohibited.
              This product is subject to U.S. laws governing export and re-export.
              For full Legal Notice, see documentation.

Build Time: Nov 28 2022 09:52:02 EST  Build Id: 10208  
 
Connected License Server List:	1055@ansyslic.eng.ox.ac.uk

*********************************************
Info: Your license enables 4-way parallel execution.
For faster simulations, please start the application with the appropriate parallel options.
*********************************************


     --------------------------------------------------------------
     This is an academic version of ANSYS FLUENT. Usage of this product
     license is limited to the terms and conditions specified in your ANSYS
     license form, additional terms section.
     --------------------------------------------------------------
Host spawning Node 0 on machine "Engs-30669" (win64).

------------------------------------------------------------------------------------
ID    Hostname    Core  O.S.         PID    Vendor                                 
------------------------------------------------------------------------------------
n0    Engs-30669  1/32  Windows-x64  49336  13th Gen Intel(R) Core(TM) i9-13900    
host  Engs-30669        Windows-x64  50016  13th Gen Intel(R) Core(TM) i9-13900    

MPI Option Selected: intel
------------------------------------------------------------------------------------

Cleanup script file is C:\\Users\\kebl7595\\Desktop\\CFD\\Runs\\Actual Data\\27 degree\\cleanup-fluent-Engs-30669-50016.bat
QA Service Message :
QA Services Agreement Enabled. This application is included in the scope of an ANSYS QA Services Agreement.
Posting ANSYS Product Improvement Program startup data
Done.

Reading journal file C:/Users/kebl7595/Desktop/CFD/Runs/Actual Data/27 degree/project1.jou...

> /file/set-batch-options no no no 

> 
define/                 parametric-study/       solve/
display/                plot/                   surface/
exit                    preferences/            switch-to-meshing-mode
file/                   print-license-usage     turbo-workflow/
mesh/                   report/                 views/
parallel/               server/

> /file/import/cgns/mesh  "./project1.cgns"
Engs-30669 has other FLUENT parallel processes running.                       Process affinity not being set.

Importing "./project1.cgns"

Opening library "C:\\PROGRA~1\\ANSYSI~1\\v231\\fluent\\fluent23.1.0\\vki\\win64\\devtools4.4.6.dll"... done.

Read    17864 nodes
   12996 hexahedral cells, zone  1
    9462 quadrilateral wall faces, zone  2.
   33972 quadrilateral interior faces, zone  3.
     282 quadrilateral interface faces, zone  4.
       6 quadrilateral wall faces, zone  5.

Building...
     mesh
     materials,
     interface,
     domains,
     zones,
	default_exterior-1
	interface-default_subface
	default_interior-1
	default_subface
	default
     parallel,
The automatic selection for flux type has changed to Rhie-Chow: momentum based.

Done.


> 
adjoint/                parallel/               server/
define/                 parametric-study/       solve/
display/                plot/                   surface/
exit                    preferences/            turbo-workflow/
file/                   print-license-usage     views/
mesh/                   report/

> /define/models/solver/density-based-implicit yes

> 
adjoint/                parallel/               server/
define/                 parametric-study/       solve/
display/                plot/                   surface/
exit                    preferences/            turbo-workflow/
file/                   print-license-usage     views/
mesh/                   report/

> /define/models/energy? yes yes invalid command [yes]
yes

> /define/models/viscous/inviscid yes

> 
adjoint/                parallel/               server/
define/                 parametric-study/       solve/
display/                plot/                   surface/
exit                    preferences/            turbo-workflow/
file/                   print-license-usage     views/
mesh/                   report/

> /define/materials/change-create air air air is a fluid
yes 
Density
ideal-gas no data required.

no no no no 

> 
adjoint/                parallel/               server/
define/                 parametric-study/       solve/
display/                plot/                   surface/
exit                    preferences/            turbo-workflow/
file/                   print-license-usage     views/
mesh/                   report/

> /mesh/modify-zones/sep-face-zone-angle 2 90 yes

 4332 faces in contiguous region 0
 228 faces in contiguous region 1
 342 faces in contiguous region 2
 4332 faces in contiguous region 3
 228 faces in contiguous region 4
 Separates zone 2 into 5 zone(s).
Updating new zone information...
   created new zone default_subface:010 from default_subface
   created new zone default_subface:009 from default_subface
   created new zone default_subface:008 from default_subface
   created new zone default_subface:007 from default_subface
done.

> 
adjoint/                parallel/               server/
define/                 parametric-study/       solve/
display/                plot/                   surface/
exit                    preferences/            turbo-workflow/
file/                   print-license-usage     views/
mesh/                   report/

> /define/boundary-conditions/zone-name  5   te

> /define/boundary-conditions/zone-name  7 wing

> /define/boundary-conditions/zone-name  2 sym1

> /define/boundary-conditions/zone-name  9 sym2

> 
adjoint/                parallel/               server/
define/                 parametric-study/       solve/
display/                plot/                   surface/
exit                    preferences/            turbo-workflow/
file/                   print-license-usage     views/
mesh/                   report/

> /define/boundary-conditions/zone-name  8 far1

> /define/boundary-conditions/zone-name 10 far2

> 
adjoint/                parallel/               server/
define/                 parametric-study/       solve/
display/                plot/                   surface/
exit                    preferences/            turbo-workflow/
file/                   print-license-usage     views/
mesh/                   report/

> /define/boundary-conditions/zone-type  8 pressure-far-field

> /define/boundary-conditions/zone-type 10 pressure-far-field

> /define/boundary-conditions/zone-type  2 symmetry

> /define/boundary-conditions/zone-type  9 symmetry

> 
adjoint/                parallel/               server/
define/                 parametric-study/       solve/
display/                plot/                   surface/
exit                    preferences/            turbo-workflow/
file/                   print-license-usage     views/
mesh/                   report/

> /define/boundary-conditions/pressure-far-field (far2 far1)
far1 no 0 no 0.1 no 300 yes no 0.89101 no 0.45399 no 0

> /define/boundary-conditions/pressure-far-field (far2 far1)
far2 no 0 no 0.1 no 300 yes no 0.89101 no 0.45399 no 0

> 
adjoint/                parallel/               server/
define/                 parametric-study/       solve/
display/                plot/                   surface/
exit                    preferences/            turbo-workflow/
file/                   print-license-usage     views/
mesh/                   report/

> /solve/initialize/compute-defaults/pressure-far-field (far2 far1)
far1

> /solve/initialize/initialize-flow

> 
adjoint/                parallel/               server/
define/                 parametric-study/       solve/
display/                plot/                   surface/
exit                    preferences/            turbo-workflow/
file/                   print-license-usage     views/
mesh/                   report/

> /solve/monitors/residual/convergence-criteria 1.e-9 1.e-9 1.e-9 1.e-9 1.e-9

> /solve/iterate 2000

  iter  continuity  x-velocity  y-velocity  z-velocity      energy     time/iter
     1  1.0000e+00  1.0000e+00  1.0000e+00  0.0000e+00  1.0000e+00  0:00:00 1999
     2  5.1656e-01  4.7153e-01  4.3133e-01  1.0000e+00  5.1709e-01  0:00:00 1998
     3  2.5781e-01  2.2397e-01  2.3150e-01  7.7639e-01  2.5802e-01  0:00:00 1997
     4  1.5558e-01  1.4356e-01  1.3096e-01  5.3661e-01  1.5564e-01  0:00:00 1996
     5  1.1706e-01  1.0130e-01  8.0676e-02  5.4317e-01  1.1713e-01  0:00:00 1995
     6  9.5969e-02  7.1551e-02  5.6074e-02  6.8658e-01  9.6069e-02  0:00:00 1994
     7  8.2679e-02  5.2810e-02  4.2578e-02  7.5610e-01  8.2789e-02  0:33:13 1993
     8  7.3862e-02  4.1757e-02  3.3799e-02  7.9444e-01  7.3963e-02  0:26:34 1992
     9  6.8163e-02  3.5116e-02  2.7878e-02  8.0614e-01  6.8248e-02  0:21:14 1991
    10  6.4696e-02  3.1349e-02  2.3850e-02  8.1478e-01  6.4761e-02  0:16:59 1990
    11  6.2753e-02  2.9583e-02  2.1071e-02  8.1087e-01  6.2796e-02  0:13:35 1989

  iter  continuity  x-velocity  y-velocity  z-velocity      energy     time/iter
    12  6.2039e-02  2.9051e-02  1.9136e-02  8.1401e-01  6.2062e-02  0:10:51 1988
    13  6.2232e-02  2.9307e-02  1.7882e-02  8.2369e-01  6.2238e-02  0:08:41 1987
    14  6.3141e-02  3.0122e-02  1.7078e-02  8.4394e-01  6.3129e-02  0:06:56 1986
    15  6.4436e-02  3.1276e-02  1.6605e-02  8.7047e-01  6.4408e-02  0:05:33 1985
    16  6.6113e-02  3.2579e-02  1.6443e-02  8.9655e-01  6.6067e-02  0:04:26 1984
    17  6.7906e-02  3.3973e-02  1.6403e-02  9.2433e-01  6.7842e-02  0:03:33 1983
    18  6.9726e-02  3.5440e-02  1.6532e-02  9.5492e-01  6.9641e-02  0:02:50 1982
    19  7.1477e-02  3.6842e-02  1.6797e-02  9.9319e-01  7.1369e-02  0:02:16 1981
    20  7.2980e-02  3.8053e-02  1.7196e-02  1.0452e+00  7.2844e-02  0:08:25 1980
    21  7.4185e-02  3.8989e-02  1.7631e-02  1.0972e+00  7.4019e-02  0:06:44 1979
    22  7.5072e-02  3.9758e-02  1.8030e-02  1.1510e+00  7.4873e-02  0:05:23 1978

  iter  continuity  x-velocity  y-velocity  z-velocity      energy     time/iter
    23  7.5461e-02  4.0363e-02  1.8402e-02  1.2049e+00  7.5226e-02  0:04:18 1977
    24  7.5395e-02  4.0606e-02  1.8713e-02  1.2537e+00  7.5121e-02  0:03:26 1976
    25  7.5000e-02  4.0704e-02  1.8968e-02  1.2972e+00  7.4686e-02  0:02:45 1975
    26  7.4040e-02  4.0614e-02  1.9222e-02  1.3288e+00  7.3684e-02  0:02:12 1974
    27  7.2660e-02  4.0263e-02  1.9407e-02  1.3455e+00  7.2261e-02  0:01:46 1973
    28  7.0960e-02  3.9745e-02  1.9543e-02  1.3460e+00  7.0519e-02  0:01:24 1972
    29  6.8945e-02  3.9110e-02  1.9762e-02  1.3301e+00  6.8464e-02  0:01:07 1971
    30  6.6596e-02  3.8411e-02  1.9987e-02  1.3007e+00  6.6075e-02  0:00:54 1970
    31  6.4012e-02  3.7578e-02  2.0491e-02  1.2586e+00  6.3453e-02  0:00:43 1969
    32  6.1272e-02  3.6673e-02  2.1254e-02  1.2106e+00  6.0677e-02  0:00:34 1968
    33  5.8399e-02  3.5739e-02  2.2342e-02  1.1678e+00  5.7772e-02  0:00:28 1967

  iter  continuity  x-velocity  y-velocity  z-velocity      energy     time/iter
    34  5.5425e-02  3.4896e-02  2.3721e-02  1.1399e+00  5.4769e-02  0:00:22 1966
    35  5.2420e-02  3.4101e-02  2.5396e-02  1.1281e+00  5.1738e-02  0:00:18 1965
    36  4.9416e-02  3.3338e-02  2.7335e-02  1.1385e+00  4.8712e-02  0:06:47 1964
    37  4.6427e-02  3.2586e-02  2.9412e-02  1.1676e+00  4.5703e-02  0:05:25 1963
    38  4.3472e-02  3.1936e-02  3.1735e-02  1.2084e+00  4.2733e-02  0:04:20 1962
    39  4.0548e-02  3.1493e-02  3.4148e-02  1.2539e+00  3.9796e-02  0:03:28 1961
    40  3.7686e-02  3.1347e-02  3.6612e-02  1.2988e+00  3.6923e-02  0:02:46 1960
    41  3.4905e-02  3.1391e-02  3.9103e-02  1.3304e+00  3.4135e-02  0:02:13 1959
    42  3.2216e-02  3.1493e-02  4.1582e-02  1.3492e+00  3.1441e-02  0:01:46 1958
    43  2.9649e-02  3.1961e-02  4.4079e-02  1.3544e+00  2.8872e-02  0:01:25 1957
    44  2.7213e-02  3.2778e-02  4.6543e-02  1.3425e+00  2.6437e-02  0:01:08 1956

  iter  continuity  x-velocity  y-velocity  z-velocity      energy     time/iter
    45  2.4920e-02  3.3924e-02  4.8966e-02  1.3133e+00  2.4150e-02  0:00:54 1955
    46  2.2786e-02  3.5264e-02  5.1371e-02  1.2681e+00  2.2026e-02  0:00:43 1954
    47  2.0823e-02  3.6872e-02  5.3720e-02  1.2117e+00  2.0081e-02  0:00:35 1953
    48  1.9059e-02  3.8715e-02  5.5995e-02  1.1526e+00  1.8342e-02  0:00:28 1952
    49  1.7534e-02  4.0702e-02  5.8190e-02  1.0942e+00  1.6854e-02  0:00:22 1951
    50  1.6292e-02  4.2805e-02  6.0293e-02  1.0391e+00  1.5661e-02  0:00:18 1950
    51  1.5365e-02  4.5007e-02  6.2293e-02  9.9242e-01  1.4798e-02  0:00:14 1949
    52  1.4780e-02  4.7304e-02  6.4177e-02  9.5630e-01  1.4291e-02  0:06:41 1948
    53  1.4578e-02  4.9656e-02  6.5925e-02  9.3390e-01  1.4176e-02  0:05:21 1947
    54  1.4758e-02  5.2044e-02  6.7511e-02  9.2241e-01  1.4445e-02  0:04:16 1946
    55  1.5301e-02  5.4470e-02  6.8911e-02  9.2210e-01  1.5072e-02  0:03:25 1945

  iter  continuity  x-velocity  y-velocity  z-velocity      energy     time/iter
    56  1.6171e-02  5.6928e-02  7.0090e-02  9.3041e-01  1.6014e-02  0:02:44 1944
    57  1.7319e-02  5.9397e-02  7.1028e-02  9.4348e-01  1.7221e-02  0:02:11 1943
    58  1.8706e-02  6.1836e-02  7.1715e-02  9.6064e-01  1.8653e-02  0:01:45 1942
    59  2.0303e-02  6.4292e-02  7.2123e-02  9.8011e-01  2.0280e-02  0:01:24 1941
    60  2.2069e-02  6.6781e-02  7.2226e-02  9.9813e-01  2.2067e-02  0:01:07 1940
    61  2.3967e-02  6.9280e-02  7.2025e-02  1.0135e+00  2.3977e-02  0:00:54 1939
    62  2.5973e-02  7.1762e-02  7.1522e-02  1.0281e+00  2.5989e-02  0:00:43 1938
    63  2.8070e-02  7.4166e-02  7.0737e-02  1.0385e+00  2.8086e-02  0:00:34 1937
    64  3.0233e-02  7.6441e-02  6.9682e-02  1.0447e+00  3.0246e-02  0:00:27 1936
    65  3.2442e-02  7.8528e-02  6.8368e-02  1.0482e+00  3.2448e-02  0:00:22 1935
    66  3.4683e-02  8.0338e-02  6.6822e-02  1.0549e+00  3.4680e-02  0:00:18 1934

  iter  continuity  x-velocity  y-velocity  z-velocity      energy     time/iter
    67  3.6899e-02  8.1748e-02  6.5087e-02  1.0639e+00  3.6885e-02  0:00:14 1933
    68  3.8849e-02  8.2656e-02  6.3268e-02  1.0656e+00  3.8822e-02  0:06:38 1932
    69  4.0071e-02  8.3131e-02  6.1249e-02  1.0651e+00  4.0029e-02  0:05:18 1931
    70  4.0859e-02  8.3085e-02  5.9085e-02  1.0838e+00  4.0798e-02  0:04:14 1930
    71  4.1251e-02  8.2589e-02  5.6900e-02  1.0831e+00  4.1168e-02  0:03:23 1929
    72  4.1331e-02  8.1768e-02  5.4783e-02  1.0946e+00  4.1218e-02  0:02:43 1928
    73  4.0939e-02  8.0912e-02  5.2760e-02  1.1264e+00  4.0790e-02  0:02:10 1927
    74  4.0175e-02  7.9781e-02  5.1015e-02  1.1575e+00  3.9980e-02  0:01:44 1926
    75  3.9317e-02  7.8210e-02  4.9686e-02  1.1801e+00  3.9069e-02  0:01:23 1925
    76  3.8383e-02  7.6137e-02  4.8866e-02  1.2294e+00  3.8077e-02  0:01:06 1924
    77  3.7186e-02  7.3701e-02  4.8626e-02  1.2688e+00  3.6817e-02  0:00:53 1923

  iter  continuity  x-velocity  y-velocity  z-velocity      energy     time/iter
    78  3.5821e-02  7.1230e-02  4.8953e-02  1.3008e+00  3.5387e-02  0:00:42 1922
    79  3.4408e-02  6.8810e-02  4.9859e-02  1.3578e+00  3.3912e-02  0:00:34 1921
    80  3.3078e-02  6.6316e-02  5.1361e-02  1.3899e+00  3.2530e-02  0:00:27 1920
    81  3.2074e-02  6.3859e-02  5.3307e-02  1.3841e+00  3.1490e-02  0:00:22 1919
    82  3.1346e-02  6.2255e-02  5.5356e-02  1.3971e+00  3.0745e-02  0:00:17 1918
    83  2.9976e-02  6.0163e-02  5.7843e-02  1.4234e+00  2.9361e-02  0:00:14 1917
    84  2.8737e-02  5.7704e-02  6.0495e-02  1.4466e+00  2.8125e-02  0:06:34 1916
    85  2.7582e-02  5.5748e-02  6.2853e-02  1.4649e+00  2.6988e-02  0:05:15 1915
    86  2.6572e-02  5.4257e-02  6.4942e-02  1.4898e+00  2.6011e-02  0:04:12 1914
    87  2.5765e-02  5.3101e-02  6.6734e-02  1.5010e+00  2.5251e-02  0:03:22 1913
    88  2.5124e-02  5.2618e-02  6.8098e-02  1.8044e+00  2.4667e-02  0:02:41 1912

  iter  continuity  x-velocity  y-velocity  z-velocity      energy     time/iter
    89  2.4675e-02  5.2452e-02  6.9082e-02  1.7003e+00  2.4281e-02  0:02:09 1911
    90  2.4506e-02  5.2557e-02  6.9656e-02  1.6259e+00  2.4180e-02  0:01:43 1910
    91  2.4546e-02  5.2905e-02  6.9863e-02  1.7161e+00  2.4288e-02  0:01:22 1909
    92  2.4642e-02  5.3829e-02  6.9630e-02  1.7858e+00  2.4448e-02  0:01:06 1908
    93  2.4992e-02  5.5205e-02  6.9029e-02  1.6868e+00  2.4856e-02  0:00:53 1907
    94  2.5476e-02  5.6944e-02  6.8035e-02  1.6589e+00  2.5392e-02  0:00:42 1906
    95  2.6015e-02  5.8920e-02  6.6741e-02  1.6030e+00  2.5974e-02  0:00:34 1905
    96  2.6622e-02  6.0406e-02  6.5265e-02  1.5249e+00  2.6614e-02  0:00:27 1904
    97  2.7265e-02  6.1759e-02  6.3490e-02  1.4744e+00  2.7282e-02  0:00:22 1903
    98  2.7841e-02  6.3033e-02  6.1486e-02  1.4585e+00  2.7874e-02  0:00:17 1902
    99  2.8294e-02  6.3994e-02  5.9334e-02  1.4961e+00  2.8336e-02  0:00:14 1901

  iter  continuity  x-velocity  y-velocity  z-velocity      energy     time/iter
   100  2.8719e-02  6.4758e-02  5.7053e-02  1.4574e+00  2.8765e-02  0:06:31 1900
   101  2.8880e-02  6.5195e-02  5.4469e-02  1.4197e+00  2.8925e-02  0:05:13 1899
   102  2.9145e-02  6.5468e-02  5.1726e-02  1.3917e+00  2.9185e-02  0:04:10 1898
   103  2.9322e-02  6.5438e-02  4.8912e-02  1.3928e+00  2.9352e-02  0:03:20 1897
   104  2.9030e-02  6.4874e-02  4.5936e-02  1.4104e+00  2.9048e-02  0:02:40 1896
   105  2.8680e-02  6.4016e-02  4.2924e-02  1.4586e+00  2.8684e-02  0:02:08 1895
   106  2.8404e-02  6.2828e-02  3.9990e-02  1.5390e+00  2.8391e-02  0:01:42 1894
   107  2.7930e-02  6.1400e-02  3.7197e-02  1.6489e+00  2.7899e-02  0:01:22 1893
   108  2.7246e-02  5.9712e-02  3.4412e-02  1.7496e+00  2.7199e-02  0:01:05 1892
   109  2.6503e-02  5.7869e-02  3.1826e-02  1.8559e+00  2.6440e-02  0:00:52 1891
   110  2.5396e-02  5.5931e-02  2.9559e-02  1.9598e+00  2.5319e-02  0:00:42 1890

  iter  continuity  x-velocity  y-velocity  z-velocity      energy     time/iter
   111  2.3756e-02  5.3727e-02  2.7629e-02  2.0732e+00  2.3666e-02  0:00:33 1889
   112  2.1803e-02  5.1344e-02  2.6088e-02  2.1812e+00  2.1701e-02  0:00:27 1888
   113  2.0000e-02  4.8985e-02  2.5070e-02  2.3073e+00  1.9888e-02  0:00:21 1887
   114  1.8511e-02  4.6652e-02  2.4585e-02  2.4481e+00  1.8390e-02  0:00:17 1886
   115  1.7273e-02  4.4310e-02  2.4504e-02  2.6214e+00  1.7145e-02  0:00:14 1885
   116  1.6082e-02  4.2046e-02  2.4722e-02  2.8076e+00  1.5950e-02  0:06:28 1884
   117  1.4615e-02  3.9965e-02  2.5221e-02  2.9519e+00  1.4479e-02  0:05:10 1883
   118  1.2990e-02  3.8145e-02  2.5937e-02  3.0265e+00  1.2851e-02  0:04:08 1882
   119  1.1468e-02  3.6363e-02  2.6741e-02  3.0783e+00  1.1328e-02  0:03:18 1881
   120  1.0201e-02  3.4936e-02  2.7623e-02  3.1312e+00  1.0061e-02  0:02:38 1880
   121  9.3600e-03  3.3970e-02  2.8502e-02  3.1969e+00  9.2256e-03  0:02:07 1879

  iter  continuity  x-velocity  y-velocity  z-velocity      energy     time/iter
   122  9.0403e-03  3.3437e-02  2.9340e-02  3.3370e+00  8.9166e-03  0:01:41 1878
   123  9.1638e-03  3.3313e-02  3.0105e-02  3.5443e+00  9.0535e-03  0:01:21 1877
   124  9.5221e-03  3.3581e-02  3.0730e-02  3.7530e+00  9.4240e-03  0:01:05 1876
   125  9.9029e-03  3.4060e-02  3.1211e-02  3.9200e+00  9.8139e-03  0:00:52 1875
   126  1.0171e-02  3.4949e-02  3.1528e-02  3.9773e+00  1.0088e-02  0:00:41 1874
   127  1.0327e-02  3.5909e-02  3.1739e-02  3.9573e+00  1.0247e-02  0:00:33 1873
   128  1.0331e-02  3.6963e-02  3.1754e-02  3.7931e+00  1.0250e-02  0:00:26 1872
   129  1.0208e-02  3.8178e-02  3.1572e-02  3.5633e+00  1.0124e-02  0:00:21 1871
   130  9.9923e-03  3.9338e-02  3.1267e-02  3.2851e+00  9.9027e-03  0:00:17 1870
   131  9.7346e-03  4.0490e-02  3.0789e-02  2.9932e+00  9.6375e-03  0:06:27 1869
   132  9.5198e-03  4.1519e-02  3.0179e-02  2.7657e+00  9.4135e-03  0:05:10 1868

  iter  continuity  x-velocity  y-velocity  z-velocity      energy     time/iter
   133  9.4701e-03  4.2440e-02  2.9446e-02  2.6523e+00  9.3557e-03  0:04:08 1867
   134  9.6949e-03  4.3225e-02  2.8615e-02  2.7057e+00  9.5754e-03  0:03:18 1866
   135  1.0186e-02  4.3815e-02  2.7740e-02  2.8855e+00  1.0065e-02  0:02:38 1865
   136  1.0820e-02  4.4200e-02  2.6777e-02  3.1180e+00  1.0700e-02  0:02:07 1864
   137  1.1510e-02  4.4448e-02  2.5770e-02  3.3698e+00  1.1392e-02  0:01:41 1863
   138  1.2180e-02  4.4546e-02  2.4717e-02  3.6125e+00  1.2066e-02  0:01:21 1862
   139  1.2756e-02  4.4400e-02  2.3694e-02  3.8357e+00  1.2647e-02  0:01:05 1861
   140  1.3300e-02  4.4105e-02  2.2694e-02  3.9946e+00  1.3195e-02  0:00:52 1860
   141  1.3825e-02  4.3642e-02  2.1707e-02  4.0718e+00  1.3725e-02  0:00:41 1859
   142  1.4250e-02  4.2957e-02  2.0838e-02  4.0383e+00  1.4156e-02  0:00:33 1858
   143  1.4582e-02  4.2073e-02  2.0058e-02  3.9521e+00  1.4494e-02  0:00:26 1857

  iter  continuity  x-velocity  y-velocity  z-velocity      energy     time/iter
   144  1.4798e-02  4.1129e-02  1.9330e-02  3.8627e+00  1.4716e-02  0:00:21 1856
   145  1.4917e-02  4.0124e-02  1.8663e-02  3.7510e+00  1.4842e-02  0:00:17 1855
   146  1.5052e-02  3.9069e-02  1.8044e-02  3.6784e+00  1.4984e-02  0:00:14 1854
   147  1.5281e-02  3.7903e-02  1.7465e-02  3.7236e+00  1.5220e-02  0:06:21 1853
   148  1.5647e-02  3.6625e-02  1.6903e-02  3.8517e+00  1.5593e-02  0:05:05 1852
   149  1.6198e-02  3.5384e-02  1.6287e-02  4.0102e+00  1.6151e-02  0:04:04 1851
   150  1.6908e-02  3.3783e-02  1.5819e-02  4.1798e+00  1.6865e-02  0:03:15 1850
   151  1.7510e-02  3.1944e-02  1.5396e-02  4.3036e+00  1.7472e-02  0:02:36 1849
   152  1.8033e-02  3.0053e-02  1.4968e-02  4.3164e+00  1.7998e-02  0:02:05 1848
   153  1.8688e-02  2.8340e-02  1.4529e-02  4.2280e+00  1.8655e-02  0:01:40 1847
   154  1.9361e-02  2.6853e-02  1.4153e-02  4.0720e+00  1.9330e-02  0:01:20 1846

  iter  continuity  x-velocity  y-velocity  z-velocity      energy     time/iter
   155  2.0098e-02  2.5606e-02  1.3853e-02  3.8752e+00  2.0069e-02  0:01:04 1845
   156  2.0825e-02  2.4563e-02  1.3633e-02  3.6782e+00  2.0797e-02  0:00:51 1844
   157  2.1477e-02  2.3758e-02  1.3489e-02  3.5264e+00  2.1450e-02  0:00:41 1843
   158  2.2066e-02  2.3291e-02  1.3416e-02  3.5552e+00  2.2040e-02  0:00:33 1842
   159  2.2370e-02  2.3274e-02  1.3294e-02  3.6675e+00  2.2344e-02  0:00:26 1841
   160  2.2404e-02  2.3361e-02  1.3304e-02  3.9062e+00  2.2376e-02  0:00:21 1840
   161  2.2158e-02  2.3559e-02  1.3358e-02  4.1552e+00  2.2129e-02  0:00:17 1839
   162  2.1605e-02  2.3876e-02  1.3346e-02  4.3745e+00  2.1572e-02  0:06:21 1838
   163  2.0630e-02  2.4178e-02  1.3262e-02  4.5804e+00  2.0592e-02  0:05:05 1837
   164  1.9342e-02  2.4336e-02  1.3071e-02  4.7024e+00  1.9297e-02  0:04:04 1836
   165  1.7894e-02  2.4400e-02  1.2799e-02  4.7524e+00  1.7840e-02  0:03:15 1835

  iter  continuity  x-velocity  y-velocity  z-velocity      energy     time/iter
   166  1.6582e-02  2.4249e-02  1.2484e-02  4.7644e+00  1.6517e-02  0:02:36 1834
   167  1.5635e-02  2.3868e-02  1.2185e-02  4.7490e+00  1.5559e-02  0:02:04 1833
   168  1.4987e-02  2.3347e-02  1.1935e-02  4.6980e+00  1.4901e-02  0:01:40 1832
   169  1.4889e-02  2.2838e-02  1.1770e-02  4.6072e+00  1.4796e-02  0:01:20 1831
   170  1.5318e-02  2.2257e-02  1.1667e-02  4.5047e+00  1.5222e-02  0:01:04 1830
   171  1.6001e-02  2.1750e-02  1.1671e-02  4.3779e+00  1.5904e-02  0:00:51 1829
   172  1.6778e-02  2.1288e-02  1.1790e-02  4.2988e+00  1.6680e-02  0:00:41 1828
   173  1.7438e-02  2.0891e-02  1.2012e-02  4.2611e+00  1.7340e-02  0:00:33 1827
   174  1.8050e-02  2.0554e-02  1.2339e-02  4.2705e+00  1.7952e-02  0:00:26 1826
   175  1.8381e-02  2.0162e-02  1.2712e-02  4.3157e+00  1.8282e-02  0:00:21 1825
   176  1.8323e-02  1.9751e-02  1.3082e-02  4.2991e+00  1.8222e-02  0:00:17 1824

  iter  continuity  x-velocity  y-velocity  z-velocity      energy     time/iter
   177  1.7856e-02  1.9406e-02  1.3474e-02  4.1937e+00  1.7751e-02  0:06:18 1823
   178  1.7132e-02  1.9173e-02  1.3830e-02  4.0506e+00  1.7023e-02  0:05:02 1822
   179  1.6284e-02  1.9032e-02  1.4112e-02  3.8847e+00  1.6172e-02  0:04:02 1821
   180  1.5399e-02  1.8940e-02  1.4339e-02  3.6973e+00  1.5283e-02  0:03:13 1820
   181  1.4840e-02  1.8787e-02  1.4542e-02  3.5407e+00  1.4722e-02  0:02:34 1819
   182  1.4553e-02  1.8591e-02  1.4770e-02  3.4550e+00  1.4437e-02  0:02:03 1818
   183  1.4657e-02  1.8329e-02  1.5008e-02  3.4501e+00  1.4545e-02  0:01:39 1817
   184  1.4499e-02  1.8029e-02  1.5211e-02  3.5188e+00  1.4391e-02  0:01:19 1816
   185  1.4157e-02  1.7699e-02  1.5355e-02  3.6075e+00  1.4052e-02  0:01:03 1815
   186  1.3654e-02  1.7383e-02  1.5524e-02  3.6672e+00  1.3552e-02  0:00:50 1814
   187  1.2914e-02  1.7176e-02  1.5718e-02  3.6836e+00  1.2814e-02  0:00:40 1813

  iter  continuity  x-velocity  y-velocity  z-velocity      energy     time/iter
   188  1.2090e-02  1.6981e-02  1.5928e-02  3.6740e+00  1.1993e-02  0:00:32 1812
   189  1.1356e-02  1.6843e-02  1.6153e-02  3.6798e+00  1.1262e-02  0:00:26 1811
   190  1.0731e-02  1.6822e-02  1.6401e-02  3.6964e+00  1.0644e-02  0:00:21 1810
   191  1.0278e-02  1.6932e-02  1.6686e-02  3.7242e+00  1.0200e-02  0:00:16 1809
   192  9.9578e-03  1.7102e-02  1.6952e-02  3.7718e+00  9.8902e-03  0:00:13 1808
   193  9.7085e-03  1.7420e-02  1.7226e-02  3.7869e+00  9.6526e-03  0:06:12 1807
   194  9.5286e-03  1.7873e-02  1.7511e-02  3.7450e+00  9.4848e-03  0:04:57 1806
   195  9.3768e-03  1.8446e-02  1.7793e-02  3.6963e+00  9.3453e-03  0:03:58 1805
   196  9.1630e-03  1.9104e-02  1.8067e-02  3.5887e+00  9.1433e-03  0:03:10 1804
   197  8.8523e-03  1.9813e-02  1.8320e-02  3.4343e+00  8.8440e-03  0:02:32 1803
   198  8.4983e-03  2.0571e-02  1.8545e-02  3.2671e+00  8.5008e-03  0:02:02 1802

  iter  continuity  x-velocity  y-velocity  z-velocity      energy     time/iter
   199  8.2542e-03  2.1394e-02  1.8734e-02  3.0482e+00  8.2664e-03  0:01:37 1801
   200  8.2919e-03  2.2246e-02  1.8874e-02  2.8978e+00  8.3109e-03  0:01:18 1800
   201  8.6428e-03  2.3107e-02  1.8954e-02  2.8802e+00  8.6648e-03  0:01:02 1799
   202  9.4364e-03  2.3968e-02  1.8978e-02  2.9995e+00  9.4572e-03  0:00:50 1798
   203  1.0478e-02  2.4804e-02  1.8904e-02  3.2833e+00  1.0495e-02  0:00:40 1797
   204  1.1620e-02  2.5588e-02  1.8766e-02  3.6788e+00  1.1632e-02  0:00:32 1796
   205  1.2788e-02  2.6327e-02  1.8554e-02  4.1828e+00  1.2793e-02  0:00:25 1795
   206  1.3981e-02  2.7000e-02  1.8274e-02  4.7983e+00  1.3979e-02  0:00:20 1794
   207  1.5039e-02  2.7566e-02  1.7938e-02  5.4152e+00  1.5031e-02  0:00:16 1793
   208  1.5969e-02  2.8013e-02  1.7550e-02  5.9718e+00  1.5954e-02  0:06:11 1792
   209  1.6655e-02  2.8347e-02  1.7136e-02  6.3708e+00  1.6633e-02  0:04:57 1791

  iter  continuity  x-velocity  y-velocity  z-velocity      energy     time/iter
   210  1.7050e-02  2.8514e-02  1.6745e-02  6.5901e+00  1.7022e-02  0:03:57 1790
   211  1.7128e-02  2.8545e-02  1.6365e-02  6.6304e+00  1.7093e-02  0:03:10 1789
   212  1.6940e-02  2.8472e-02  1.6005e-02  6.5765e+00  1.6898e-02  0:02:32 1788
   213  1.6560e-02  2.8275e-02  1.5694e-02  6.3927e+00  1.6512e-02  0:02:01 1787
   214  1.6040e-02  2.7925e-02  1.5457e-02  6.1805e+00  1.5985e-02  0:01:37 1786
   215  1.5314e-02  2.7424e-02  1.5305e-02  5.9688e+00  1.5253e-02  0:01:18 1785
   216  1.4414e-02  2.6803e-02  1.5237e-02  5.7950e+00  1.4347e-02  0:01:02 1784
   217  1.3517e-02  2.6017e-02  1.5291e-02  5.7889e+00  1.3445e-02  0:00:50 1783
   218  1.2498e-02  2.5161e-02  1.5442e-02  5.9106e+00  1.2419e-02  0:00:40 1782
   219  1.1571e-02  2.4278e-02  1.5699e-02  6.2357e+00  1.1488e-02  0:00:32 1781
   220  1.1021e-02  2.3468e-02  1.6035e-02  6.8226e+00  1.0937e-02  0:00:25 1780

  iter  continuity  x-velocity  y-velocity  z-velocity      energy     time/iter
   221  1.0695e-02  2.2782e-02  1.6437e-02  7.5611e+00  1.0613e-02  0:00:20 1779
   222  9.9970e-03  2.2193e-02  1.6884e-02  8.1479e+00  9.9177e-03  0:00:16 1778
   223  9.0650e-03  2.1706e-02  1.7371e-02  8.4442e+00  8.9898e-03  0:00:13 1777
   224  8.3403e-03  2.1335e-02  1.7870e-02  8.5863e+00  8.2733e-03  0:06:06 1776
   225  7.8781e-03  2.1072e-02  1.8339e-02  8.7188e+00  7.8230e-03  0:04:52 1775
   226  7.5946e-03  2.0950e-02  1.8761e-02  8.8908e+00  7.5539e-03  0:03:54 1774
   227  7.3267e-03  2.1064e-02  1.9047e-02  8.9667e+00  7.3012e-03  0:03:07 1773
   228  7.0713e-03  2.1299e-02  1.9281e-02  8.8764e+00  7.0609e-03  0:02:29 1772
   229  7.0243e-03  2.1550e-02  1.9443e-02  8.5869e+00  7.0274e-03  0:01:59 1771
   230  7.4029e-03  2.1958e-02  1.9509e-02  8.2334e+00  7.4156e-03  0:01:36 1770
   231  8.2910e-03  2.2505e-02  1.9483e-02  8.1123e+00  8.3079e-03  0:01:16 1769

  iter  continuity  x-velocity  y-velocity  z-velocity      energy     time/iter
   232  9.5398e-03  2.3145e-02  1.9364e-02  8.2641e+00  9.5564e-03  0:01:01 1768
   233  1.0892e-02  2.3863e-02  1.9182e-02  8.7008e+00  1.0906e-02  0:00:49 1767
   234  1.2129e-02  2.4599e-02  1.8953e-02  9.2224e+00  1.2139e-02  0:00:39 1766
   235  1.3043e-02  2.5285e-02  1.8701e-02  9.6383e+00  1.3049e-02  0:00:31 1765
   236  1.3197e-02  2.5895e-02  1.8427e-02  9.7206e+00  1.3198e-02  0:00:25 1764
   237  1.2750e-02  2.6464e-02  1.8135e-02  9.5039e+00  1.2746e-02  0:00:20 1763
   238  1.1962e-02  2.7066e-02  1.7802e-02  9.1362e+00  1.1951e-02  0:00:16 1762
   239  1.1200e-02  2.7693e-02  1.7435e-02  8.6412e+00  1.1180e-02  0:06:05 1761
   240  1.0745e-02  2.8278e-02  1.7021e-02  8.2296e+00  1.0715e-02  0:04:52 1760
   241  1.0556e-02  2.8684e-02  1.6556e-02  7.8465e+00  1.0515e-02  0:03:53 1759
   242  1.0513e-02  2.8852e-02  1.6051e-02  7.4515e+00  1.0461e-02  0:03:07 1758

  iter  continuity  x-velocity  y-velocity  z-velocity      energy     time/iter
   243  1.0539e-02  2.8709e-02  1.5489e-02  7.0355e+00  1.0477e-02  0:02:29 1757
   244  1.0667e-02  2.8278e-02  1.4938e-02  6.6568e+00  1.0596e-02  0:01:59 1756
   245  1.0919e-02  2.7670e-02  1.4511e-02  6.3165e+00  1.0840e-02  0:01:35 1755
   246  1.1245e-02  2.6914e-02  1.4135e-02  5.9432e+00  1.1159e-02  0:01:16 1754
   247  1.1567e-02  2.6064e-02  1.3875e-02  5.6487e+00  1.1475e-02  0:01:01 1753
   248  1.1779e-02  2.5125e-02  1.3749e-02  5.3210e+00  1.1682e-02  0:00:49 1752
   249  1.1707e-02  2.4154e-02  1.3738e-02  5.0188e+00  1.1603e-02  0:00:39 1751
   250  1.1405e-02  2.3117e-02  1.3850e-02  4.7439e+00  1.1293e-02  0:00:31 1750
   251  1.0779e-02  2.2095e-02  1.4038e-02  4.4705e+00  1.0657e-02  0:06:15 1749
   252  1.0055e-02  2.1028e-02  1.4293e-02  4.1788e+00  9.9208e-03  0:05:00 1748
   253  9.3525e-03  2.0122e-02  1.4575e-02  3.9232e+00  9.2069e-03  0:04:00 1747

  iter  continuity  x-velocity  y-velocity  z-velocity      energy     time/iter
   254  8.7072e-03  1.9257e-02  1.4911e-02  3.7095e+00  8.5505e-03  0:03:12 1746
   255  8.1530e-03  1.8476e-02  1.5285e-02  3.5700e+00  7.9868e-03  0:02:33 1745
   256  7.7320e-03  1.7739e-02  1.5691e-02  3.5153e+00  7.5595e-03  0:02:02 1744
   257  7.3456e-03  1.7165e-02  1.6077e-02  3.5352e+00  7.1686e-03  0:01:38 1743
   258  6.9137e-03  1.6859e-02  1.6418e-02  3.5672e+00  6.7328e-03  0:01:18 1742
   259  6.4517e-03  1.6591e-02  1.6773e-02  3.5853e+00  6.2674e-03  0:01:03 1741
   260  6.0550e-03  1.6331e-02  1.7142e-02  3.5265e+00  5.8705e-03  0:00:50 1740
   261  5.7823e-03  1.6400e-02  1.7417e-02  3.4198e+00  5.6034e-03  0:00:40 1739
   262  5.6566e-03  1.6622e-02  1.7646e-02  3.2877e+00  5.4898e-03  0:00:32 1738
   263  5.6548e-03  1.6946e-02  1.7841e-02  3.1690e+00  5.5051e-03  0:00:26 1737
   264  5.7402e-03  1.7342e-02  1.7996e-02  3.0653e+00  5.6102e-03  0:00:20 1736

  iter  continuity  x-velocity  y-velocity  z-velocity      energy     time/iter
   265  5.8430e-03  1.7789e-02  1.8104e-02  2.9751e+00  5.7326e-03  0:06:03 1735
   266  5.8959e-03  1.8275e-02  1.8167e-02  2.9154e+00  5.8035e-03  0:04:51 1734
   267  5.8660e-03  1.8770e-02  1.8178e-02  2.8407e+00  5.7900e-03  0:03:52 1733
   268  5.7210e-03  1.9264e-02  1.8142e-02  2.7462e+00  5.6598e-03  0:03:06 1732
   269  5.4972e-03  1.9754e-02  1.8054e-02  2.6924e+00  5.4498e-03  0:02:28 1731
   270  5.2049e-03  2.0242e-02  1.7906e-02  2.6394e+00  5.1706e-03  0:01:59 1730
   271  4.8944e-03  2.0702e-02  1.7713e-02  2.6406e+00  4.8730e-03  0:01:35 1729
   272  4.6017e-03  2.1127e-02  1.7474e-02  2.5973e+00  4.5926e-03  0:01:16 1728
   273  4.3750e-03  2.1501e-02  1.7188e-02  2.5685e+00  4.3770e-03  0:01:01 1727
   274  4.2350e-03  2.1828e-02  1.6847e-02  2.5517e+00  4.2462e-03  0:00:49 1726
   275  4.2320e-03  2.2114e-02  1.6451e-02  2.5560e+00  4.2492e-03  0:00:39 1725

  iter  continuity  x-velocity  y-velocity  z-velocity      energy     time/iter
   276  4.3238e-03  2.2345e-02  1.6012e-02  2.5601e+00  4.3438e-03  0:00:31 1724
   277  4.4793e-03  2.2510e-02  1.5528e-02  2.5527e+00  4.4991e-03  0:00:25 1723
   278  4.6814e-03  2.2593e-02  1.4999e-02  2.5303e+00  4.6987e-03  0:00:20 1722
   279  4.9025e-03  2.2596e-02  1.4423e-02  2.5031e+00  4.9157e-03  0:06:00 1721
   280  5.1182e-03  2.2499e-02  1.3820e-02  2.4580e+00  5.1262e-03  0:04:48 1720
   281  5.2948e-03  2.2298e-02  1.3205e-02  2.3762e+00  5.2972e-03  0:03:50 1719
   282  5.4275e-03  2.2014e-02  1.2561e-02  2.2498e+00  5.4240e-03  0:03:04 1718
   283  5.5212e-03  2.1665e-02  1.1903e-02  2.1174e+00  5.5121e-03  0:02:27 1717
   284  5.5320e-03  2.1227e-02  1.1267e-02  1.9823e+00  5.5173e-03  0:01:58 1716
   285  5.5033e-03  2.0707e-02  1.0665e-02  1.8717e+00  5.4834e-03  0:01:34 1715
   286  5.4886e-03  2.0144e-02  1.0084e-02  1.7909e+00  5.4643e-03  0:01:15 1714

  iter  continuity  x-velocity  y-velocity  z-velocity      energy     time/iter
   287  5.4784e-03  1.9540e-02  9.5535e-03  1.7380e+00  5.4510e-03  0:01:00 1713
   288  5.4856e-03  1.8883e-02  9.1047e-03  1.6794e+00  5.4562e-03  0:00:48 1712
   289  5.4569e-03  1.8177e-02  8.7518e-03  1.6105e+00  5.4266e-03  0:00:38 1711
   290  5.3501e-03  1.7426e-02  8.5072e-03  1.5450e+00  5.3198e-03  0:00:31 1710
   291  5.1414e-03  1.6665e-02  8.3585e-03  1.4741e+00  5.1119e-03  0:00:25 1709
   292  4.8148e-03  1.5924e-02  8.2959e-03  1.4094e+00  4.7868e-03  0:06:01 1708
   293  4.4075e-03  1.5207e-02  8.3258e-03  1.3613e+00  4.3817e-03  0:04:49 1707
   294  3.9724e-03  1.4522e-02  8.4184e-03  1.3475e+00  3.9498e-03  0:03:51 1706
   295  3.6042e-03  1.3885e-02  8.5662e-03  1.3690e+00  3.5862e-03  0:03:05 1705
   296  3.3992e-03  1.3323e-02  8.7351e-03  1.4282e+00  3.3870e-03  0:02:28 1704
   297  3.3967e-03  1.2857e-02  8.9184e-03  1.5074e+00  3.3906e-03  0:01:58 1703

  iter  continuity  x-velocity  y-velocity  z-velocity      energy     time/iter
   298  3.5983e-03  1.2522e-02  9.0934e-03  1.5798e+00  3.5970e-03  0:01:34 1702
   299  3.9694e-03  1.2311e-02  9.2403e-03  1.6589e+00  3.9708e-03  0:01:15 1701
   300  4.4372e-03  1.2201e-02  9.3576e-03  1.7131e+00  4.4391e-03  0:01:00 1700
   301  4.9574e-03  1.2307e-02  9.3923e-03  1.7428e+00  4.9584e-03  0:00:48 1699
   302  5.4794e-03  1.2435e-02  9.4238e-03  1.7581e+00  5.4782e-03  0:00:39 1698
   303  5.9316e-03  1.2566e-02  9.4116e-03  1.7632e+00  5.9273e-03  0:00:31 1697
   304  6.2814e-03  1.2809e-02  9.3446e-03  1.7576e+00  6.2731e-03  0:00:25 1696
   305  6.5389e-03  1.3098e-02  9.2304e-03  1.7412e+00  6.5260e-03  0:00:20 1695
   306  6.7011e-03  1.3399e-02  9.0727e-03  1.7266e+00  6.6829e-03  0:05:55 1694
   307  6.7494e-03  1.3675e-02  8.8813e-03  1.7066e+00  6.7253e-03  0:04:43 1693
   308  6.6972e-03  1.3919e-02  8.6647e-03  1.6633e+00  6.6663e-03  0:03:47 1692

  iter  continuity  x-velocity  y-velocity  z-velocity      energy     time/iter
   309  6.5788e-03  1.4118e-02  8.4396e-03  1.6102e+00  6.5404e-03  0:03:01 1691
   310  6.4486e-03  1.4267e-02  8.2256e-03  1.5540e+00  6.4023e-03  0:02:25 1690
   311  6.5092e-03  1.4359e-02  8.0405e-03  1.5308e+00  6.4560e-03  0:01:56 1689
   312  6.9425e-03  1.4387e-02  7.9060e-03  1.5914e+00  6.8855e-03  0:01:33 1688
   313  7.5951e-03  1.4342e-02  7.8562e-03  1.6917e+00  7.5367e-03  0:01:14 1687
   314  8.1577e-03  1.4230e-02  7.8988e-03  1.7007e+00  8.0979e-03  0:00:59 1686
   315  8.4142e-03  1.4057e-02  8.0356e-03  1.6483e+00  8.3520e-03  0:00:47 1685
   316  8.3789e-03  1.3832e-02  8.2638e-03  1.6284e+00  8.3130e-03  0:00:38 1684
   317  8.1934e-03  1.3555e-02  8.5741e-03  1.6654e+00  8.1234e-03  0:00:30 1683
   318  8.0058e-03  1.3234e-02  8.9525e-03  1.7572e+00  7.9322e-03  0:00:24 1682
   319  7.8742e-03  1.2877e-02  9.3790e-03  1.8593e+00  7.7981e-03  0:00:19 1681

  iter  continuity  x-velocity  y-velocity  z-velocity      energy     time/iter
   320  7.3860e-03  1.2476e-02  9.8403e-03  1.9095e+00  7.3049e-03  0:05:51 1680
   321  6.7104e-03  1.2059e-02  1.0310e-02  1.9557e+00  6.6222e-03  0:04:41 1679
   322  6.0779e-03  1.1649e-02  1.0774e-02  2.0161e+00  5.9826e-03  0:03:45 1678
   323  5.5942e-03  1.1252e-02  1.1240e-02  2.0839e+00  5.4936e-03  0:03:00 1677
   324  5.2546e-03  1.0900e-02  1.1687e-02  2.1280e+00  5.1513e-03  0:02:24 1676
   325  5.0753e-03  1.0642e-02  1.2103e-02  2.1417e+00  4.9730e-03  0:01:55 1675
   326  5.0146e-03  1.0491e-02  1.2479e-02  2.1260e+00  4.9162e-03  0:01:32 1674
   327  5.0208e-03  1.0443e-02  1.2817e-02  2.0856e+00  4.9281e-03  0:01:13 1673
   328  5.0346e-03  1.0490e-02  1.3104e-02  2.0351e+00  4.9479e-03  0:00:59 1672
   329  5.0754e-03  1.0541e-02  1.3349e-02  1.9758e+00  4.9952e-03  0:00:47 1671
   330  5.1121e-03  1.0688e-02  1.3523e-02  1.9424e+00  5.0381e-03  0:00:38 1670

  iter  continuity  x-velocity  y-velocity  z-velocity      energy     time/iter
   331  5.0580e-03  1.0939e-02  1.3608e-02  1.9591e+00  4.9887e-03  0:00:30 1669
   332  4.8532e-03  1.1218e-02  1.3628e-02  1.9621e+00  4.7867e-03  0:00:24 1668
   333  4.5459e-03  1.1502e-02  1.3587e-02  1.9757e+00  4.4807e-03  0:00:19 1667
   334  4.1658e-03  1.1784e-02  1.3484e-02  2.2020e+00  4.1005e-03  0:05:49 1666
   335  3.9283e-03  1.2059e-02  1.3323e-02  2.0298e+00  3.8644e-03  0:04:39 1665
   336  4.1391e-03  1.2328e-02  1.3110e-02  2.0066e+00  4.0826e-03  0:03:43 1664
   337  4.6861e-03  1.2580e-02  1.2850e-02  1.9506e+00  4.6391e-03  0:02:58 1663
   338  5.4398e-03  1.2816e-02  1.2545e-02  1.9575e+00  5.4012e-03  0:02:22 1662
   339  6.2105e-03  1.3027e-02  1.2200e-02  1.9622e+00  6.1779e-03  0:01:54 1661
   340  6.8804e-03  1.3203e-02  1.1821e-02  1.9758e+00  6.8519e-03  0:01:31 1660
   341  7.4598e-03  1.3337e-02  1.1413e-02  1.9988e+00  7.4343e-03  0:01:13 1659

  iter  continuity  x-velocity  y-velocity  z-velocity      energy     time/iter
   342  7.3422e-03  1.3432e-02  1.0981e-02  2.0802e+00  7.3176e-03  0:00:58 1658
   343  6.8887e-03  1.3482e-02  1.0535e-02  2.1697e+00  6.8642e-03  0:00:47 1657
   344  6.1825e-03  1.3472e-02  1.0078e-02  2.2872e+00  6.1572e-03  0:00:37 1656
   345  5.3422e-03  1.3400e-02  9.6128e-03  2.3569e+00  5.3153e-03  0:00:30 1655
   346  4.4921e-03  1.3273e-02  9.1412e-03  2.3854e+00  4.4627e-03  0:05:55 1654
   347  3.7555e-03  1.3100e-02  8.6670e-03  2.4186e+00  3.7229e-03  0:04:43 1653
   348  3.2714e-03  1.2895e-02  8.1961e-03  2.4751e+00  3.2366e-03  0:03:47 1652
   349  3.1724e-03  1.2672e-02  7.7355e-03  2.5673e+00  3.1388e-03  0:03:01 1651
   350  3.4062e-03  1.2423e-02  7.2954e-03  2.7019e+00  3.3765e-03  0:02:25 1650
   351  3.8914e-03  1.2169e-02  6.8755e-03  2.8123e+00  3.8667e-03  0:01:56 1649
   352  4.3723e-03  1.1897e-02  6.4875e-03  2.8926e+00  4.3512e-03  0:01:33 1648

  iter  continuity  x-velocity  y-velocity  z-velocity      energy     time/iter
   353  4.7302e-03  1.1606e-02  6.1307e-03  2.8829e+00  4.7114e-03  0:01:14 1647
   354  4.9893e-03  1.1312e-02  5.7943e-03  2.8219e+00  4.9721e-03  0:00:59 1646
   355  5.1682e-03  1.1000e-02  5.4748e-03  2.7630e+00  5.1522e-03  0:00:47 1645
   356  5.3989e-03  1.0643e-02  5.1707e-03  2.7456e+00  5.3840e-03  0:00:38 1644
   357  5.1144e-03  1.0269e-02  4.8634e-03  2.7750e+00  5.0997e-03  0:00:30 1643
   358  4.8291e-03  9.8516e-03  4.5583e-03  2.8427e+00  4.8145e-03  0:00:24 1642
   359  4.4768e-03  9.4203e-03  4.2493e-03  2.9315e+00  4.4619e-03  0:00:19 1641
   360  4.1574e-03  8.9847e-03  3.9576e-03  3.0306e+00  4.1422e-03  0:00:15 1640
   361  4.1323e-03  8.5588e-03  3.6905e-03  3.1267e+00  4.1174e-03  0:05:40 1639
   362  4.5798e-03  8.1645e-03  3.4597e-03  3.2982e+00  4.5660e-03  0:04:32 1638
   363  5.2677e-03  7.8173e-03  3.2696e-03  3.4500e+00  5.2550e-03  0:03:37 1637

  iter  continuity  x-velocity  y-velocity  z-velocity      energy     time/iter
   364  5.9679e-03  7.5060e-03  3.1218e-03  3.5768e+00  5.9559e-03  0:02:54 1636
   365  6.5095e-03  7.2292e-03  3.0139e-03  3.7183e+00  6.4977e-03  0:02:19 1635
   366  6.8632e-03  6.9960e-03  2.9367e-03  3.7921e+00  6.8515e-03  0:01:51 1634
   367  7.1734e-03  6.8033e-03  2.8843e-03  3.8061e+00  7.1616e-03  0:01:29 1633
   368  7.1099e-03  6.6340e-03  2.8505e-03  3.7667e+00  7.0977e-03  0:01:11 1632
   369  6.7376e-03  6.4616e-03  2.8248e-03  3.6877e+00  6.7249e-03  0:00:57 1631
   370  6.1134e-03  6.2827e-03  2.7972e-03  3.5479e+00  6.0996e-03  0:00:45 1630
   371  5.3614e-03  6.0878e-03  2.7601e-03  3.3318e+00  5.3458e-03  0:00:36 1629
   372  4.5808e-03  5.8572e-03  2.7110e-03  3.0811e+00  4.5627e-03  0:00:29 1628
   373  3.9558e-03  5.6048e-03  2.6396e-03  2.9096e+00  3.9346e-03  0:00:23 1627
   374  3.6135e-03  5.3532e-03  2.5560e-03  2.8139e+00  3.5896e-03  0:00:19 1626

  iter  continuity  x-velocity  y-velocity  z-velocity      energy     time/iter
   375  3.6458e-03  5.1510e-03  2.4786e-03  2.7888e+00  3.6211e-03  0:00:15 1625
   376  4.0465e-03  4.9962e-03  2.4099e-03  2.7932e+00  4.0229e-03  0:05:37 1624
   377  4.6359e-03  4.8907e-03  2.3765e-03  2.7986e+00  4.6140e-03  0:04:29 1623
   378  5.1610e-03  4.8706e-03  2.3802e-03  2.7599e+00  5.1400e-03  0:03:35 1622
   379  5.6151e-03  4.8993e-03  2.4309e-03  2.7332e+00  5.5947e-03  0:02:52 1621
   380  5.9497e-03  4.9455e-03  2.5195e-03  2.7061e+00  5.9295e-03  0:02:18 1620
   381  6.1468e-03  4.9846e-03  2.6261e-03  2.6906e+00  6.1266e-03  0:01:50 1619
   382  6.2043e-03  4.9897e-03  2.7297e-03  2.6758e+00  6.1838e-03  0:01:28 1618
   383  6.1221e-03  4.9394e-03  2.8346e-03  2.6594e+00  6.1014e-03  0:01:10 1617
   384  5.8382e-03  4.8333e-03  2.9352e-03  2.6279e+00  5.8167e-03  0:00:56 1616
   385  5.3815e-03  4.6899e-03  3.0395e-03  2.5979e+00  5.3588e-03  0:00:45 1615

  iter  continuity  x-velocity  y-velocity  z-velocity      energy     time/iter
   386  4.8992e-03  4.5284e-03  3.1613e-03  2.5567e+00  4.8752e-03  0:00:36 1614
   387  4.6533e-03  4.3699e-03  3.3099e-03  2.5353e+00  4.6287e-03  0:00:29 1613
   388  4.8368e-03  4.2559e-03  3.4850e-03  2.5317e+00  4.8134e-03  0:00:23 1612
   389  5.3238e-03  4.1852e-03  3.6854e-03  2.5490e+00  5.3024e-03  0:00:18 1611
   390  5.8737e-03  4.1537e-03  3.9032e-03  2.5597e+00  5.8541e-03  0:05:37 1610
   391  6.2719e-03  4.1730e-03  4.1271e-03  2.5397e+00  6.2537e-03  0:04:29 1609
   392  6.4273e-03  4.2410e-03  4.3515e-03  2.4983e+00  6.4099e-03  0:03:35 1608
   393  6.3975e-03  4.3451e-03  4.5695e-03  2.4446e+00  6.3807e-03  0:02:52 1607
   394  6.2746e-03  4.4633e-03  4.7766e-03  2.4196e+00  6.2584e-03  0:02:18 1606
   395  6.0173e-03  4.6035e-03  4.9622e-03  2.4123e+00  6.0015e-03  0:01:50 1605
   396  5.7171e-03  4.7535e-03  5.1224e-03  2.4158e+00  5.7018e-03  0:01:28 1604

  iter  continuity  x-velocity  y-velocity  z-velocity      energy     time/iter
   397  5.4112e-03  4.8917e-03  5.2600e-03  2.4111e+00  5.3964e-03  0:01:10 1603
   398  5.0124e-03  5.0114e-03  5.3728e-03  2.3833e+00  4.9979e-03  0:00:56 1602
   399  4.6195e-03  5.1286e-03  5.4617e-03  2.3372e+00  4.6052e-03  0:00:45 1601
   400  4.2786e-03  5.2621e-03  5.5262e-03  2.3044e+00  4.2645e-03  0:00:36 1600
   401  4.0316e-03  5.4066e-03  5.5726e-03  2.2837e+00  4.0179e-03  0:00:29 1599
   402  3.9329e-03  5.5832e-03  5.6024e-03  2.2760e+00  3.9198e-03  0:00:23 1598
   403  4.0112e-03  5.7979e-03  5.6170e-03  2.3037e+00  3.9990e-03  0:00:18 1597
   404  4.2898e-03  6.0068e-03  5.6226e-03  2.3584e+00  4.2787e-03  0:00:15 1596
   405  4.7502e-03  6.2367e-03  5.6161e-03  2.4061e+00  4.7403e-03  0:05:31 1595
   406  5.2218e-03  6.4846e-03  5.5984e-03  2.4793e+00  5.2126e-03  0:04:24 1594
   407  5.5273e-03  6.6833e-03  5.5779e-03  2.5306e+00  5.5187e-03  0:03:31 1593

  iter  continuity  x-velocity  y-velocity  z-velocity      energy     time/iter
   408  5.6018e-03  6.8703e-03  5.5463e-03  2.5638e+00  5.5935e-03  0:02:49 1592
   409  5.4581e-03  7.0464e-03  5.4915e-03  2.5955e+00  5.4501e-03  0:02:15 1591
   410  5.1019e-03  7.1521e-03  5.4151e-03  2.6405e+00  5.0942e-03  0:01:48 1590
   411  4.6222e-03  7.2144e-03  5.3053e-03  2.5951e+00  4.6146e-03  0:01:26 1589
   412  4.1111e-03  7.2013e-03  5.1661e-03  2.5814e+00  4.1036e-03  0:01:09 1588
   413  3.6981e-03  7.1274e-03  5.0017e-03  2.6311e+00  3.6905e-03  0:00:55 1587
   414  3.5741e-03  7.0284e-03  4.8225e-03  2.7527e+00  3.5667e-03  0:00:44 1586
   415  3.8972e-03  6.9074e-03  4.6352e-03  2.9479e+00  3.8902e-03  0:00:35 1585
   416  4.5811e-03  6.7914e-03  4.4447e-03  3.2025e+00  4.5745e-03  0:00:28 1584
   417  5.3242e-03  6.6893e-03  4.2600e-03  3.4992e+00  5.3177e-03  0:00:23 1583
   418  5.9574e-03  6.5956e-03  4.0862e-03  3.6486e+00  5.9510e-03  0:00:18 1582

  iter  continuity  x-velocity  y-velocity  z-velocity      energy     time/iter
   419  6.4379e-03  6.5003e-03  3.9221e-03  3.7175e+00  6.4316e-03  0:00:14 1581
   420  6.7696e-03  6.4131e-03  3.7669e-03  3.7051e+00  6.7633e-03  0:05:28 1580
   421  6.9900e-03  6.3445e-03  3.6203e-03  3.5806e+00  6.9838e-03  0:04:22 1579
   422  7.2068e-03  6.2938e-03  3.4818e-03  3.3707e+00  7.2006e-03  0:03:29 1578
   423  6.9616e-03  6.2426e-03  3.3517e-03  3.1251e+00  6.9555e-03  0:02:47 1577
   424  6.4233e-03  6.1586e-03  3.2311e-03  2.9023e+00  6.4174e-03  0:02:14 1576
   425  5.6427e-03  6.0560e-03  3.1105e-03  2.7407e+00  5.6371e-03  0:01:47 1575
   426  4.7375e-03  5.9187e-03  2.9907e-03  2.6718e+00  4.7319e-03  0:01:26 1574
   427  3.8451e-03  5.7343e-03  2.8697e-03  2.6825e+00  3.8395e-03  0:01:08 1573
   428  3.1491e-03  5.5142e-03  2.7490e-03  2.7532e+00  3.1431e-03  0:00:55 1572
   429  2.8682e-03  5.2948e-03  2.6272e-03  2.8613e+00  2.8621e-03  0:00:44 1571

  iter  continuity  x-velocity  y-velocity  z-velocity      energy     time/iter
   430  3.0375e-03  5.0795e-03  2.5265e-03  2.9859e+00  3.0317e-03  0:00:35 1570
   431  3.5587e-03  4.9341e-03  2.4433e-03  3.0827e+00  3.5533e-03  0:00:28 1569
   432  4.2155e-03  4.8446e-03  2.3835e-03  3.1353e+00  4.2102e-03  0:00:22 1568
   433  4.8663e-03  4.7835e-03  2.3560e-03  3.2020e+00  4.8609e-03  0:00:18 1567
   434  5.2965e-03  4.8127e-03  2.3489e-03  3.2380e+00  5.2909e-03  0:00:14 1566
   435  5.5231e-03  4.8292e-03  2.3801e-03  3.2344e+00  5.5173e-03  0:05:24 1565
   436  5.5896e-03  4.8259e-03  2.4309e-03  3.2044e+00  5.5836e-03  0:04:19 1564
   437  5.5030e-03  4.8408e-03  2.4519e-03  3.1543e+00  5.4967e-03  0:03:27 1563
   438  5.2982e-03  4.7911e-03  2.4516e-03  3.0914e+00  5.2916e-03  0:02:46 1562
   439  5.0552e-03  4.7121e-03  2.4028e-03  3.0634e+00  5.0483e-03  0:02:13 1561
   440  4.6725e-03  4.5753e-03  2.3352e-03  3.0334e+00  4.6652e-03  0:01:46 1560

  iter  continuity  x-velocity  y-velocity  z-velocity      energy     time/iter
   441  4.3663e-03  4.4177e-03  2.2597e-03  3.0660e+00  4.3585e-03  0:01:25 1559
   442  4.3499e-03  4.2768e-03  2.2029e-03  3.1379e+00  4.3416e-03  0:01:08 1558
   443  4.7419e-03  4.1680e-03  2.1804e-03  3.2552e+00  4.7334e-03  0:00:54 1557
   444  5.4067e-03  4.1137e-03  2.2022e-03  3.3905e+00  5.3980e-03  0:00:43 1556
   445  6.0820e-03  4.1316e-03  2.2617e-03  3.5086e+00  6.0730e-03  0:00:35 1555
   446  6.5549e-03  4.1933e-03  2.3556e-03  3.6465e+00  6.5454e-03  0:00:28 1554
   447  6.7791e-03  4.2870e-03  2.4721e-03  3.7481e+00  6.7691e-03  0:00:22 1553
   448  6.7963e-03  4.4111e-03  2.5960e-03  3.7958e+00  6.7857e-03  0:00:18 1552
   449  6.7045e-03  4.5594e-03  2.7195e-03  3.8155e+00  6.6931e-03  0:05:24 1551
   450  6.3894e-03  4.7086e-03  2.8353e-03  3.7559e+00  6.3769e-03  0:04:19 1550
   451  5.9277e-03  4.8227e-03  2.9363e-03  3.6418e+00  5.9139e-03  0:03:27 1549

  iter  continuity  x-velocity  y-velocity  z-velocity      energy     time/iter
   452  5.3223e-03  4.8810e-03  3.0172e-03  3.4782e+00  5.3066e-03  0:02:46 1548
   453  4.6994e-03  4.8872e-03  3.0757e-03  3.3426e+00  4.6812e-03  0:02:13 1547
   454  4.1662e-03  4.8332e-03  3.1187e-03  3.2832e+00  4.1451e-03  0:01:46 1546
   455  3.8636e-03  4.7489e-03  3.1475e-03  3.2668e+00  3.8400e-03  0:01:25 1545
   456  3.8574e-03  4.6622e-03  3.1703e-03  3.3483e+00  3.8329e-03  0:01:08 1544
   457  4.1096e-03  4.5701e-03  3.2083e-03  3.5098e+00  4.0856e-03  0:00:54 1543
   458  4.5694e-03  4.5556e-03  3.2613e-03  3.6378e+00  4.5469e-03  0:00:43 1542
   459  5.1205e-03  4.5687e-03  3.3426e-03  3.6866e+00  5.0996e-03  0:00:35 1541
   460  5.6126e-03  4.6081e-03  3.4579e-03  3.7155e+00  5.5928e-03  0:00:28 1540
   461  5.9311e-03  4.7040e-03  3.5935e-03  3.7704e+00  5.9120e-03  0:00:22 1539
   462  6.0599e-03  4.7672e-03  3.7575e-03  3.8233e+00  6.0412e-03  0:00:18 1538

  iter  continuity  x-velocity  y-velocity  z-velocity      energy     time/iter
   463  6.0054e-03  4.8371e-03  3.9185e-03  3.8266e+00  5.9869e-03  0:05:22 1537
   464  5.7474e-03  4.8614e-03  4.0706e-03  3.8195e+00  5.7289e-03  0:04:17 1536
   465  5.3439e-03  4.8302e-03  4.2065e-03  3.7610e+00  5.3251e-03  0:03:26 1535
   466  4.8669e-03  4.7657e-03  4.3242e-03  3.7400e+00  4.8477e-03  0:02:44 1534
   467  4.4376e-03  4.6602e-03  4.4333e-03  3.7178e+00  4.4182e-03  0:02:11 1533
   468  4.2659e-03  4.5588e-03  4.5395e-03  3.7263e+00  4.2470e-03  0:01:45 1532
   469  4.4284e-03  4.4756e-03  4.6476e-03  3.6669e+00  4.4111e-03  0:01:24 1531
   470  4.9586e-03  4.4208e-03  4.7580e-03  3.6057e+00  4.9435e-03  0:01:07 1530
   471  5.6265e-03  4.4225e-03  4.8672e-03  3.5734e+00  5.6133e-03  0:00:54 1529
   472  6.2019e-03  4.4809e-03  4.9701e-03  3.5938e+00  6.1900e-03  0:00:43 1528
   473  6.5712e-03  4.5728e-03  5.0662e-03  3.6583e+00  6.5602e-03  0:00:34 1527

  iter  continuity  x-velocity  y-velocity  z-velocity      energy     time/iter
   474  6.7346e-03  4.6972e-03  5.1536e-03  3.6343e+00  6.7242e-03  0:00:27 1526
   475  6.7248e-03  4.8624e-03  5.2254e-03  3.6438e+00  6.7148e-03  0:05:27 1525
   476  6.6098e-03  5.0548e-03  5.2781e-03  3.6568e+00  6.6001e-03  0:04:21 1524
   477  6.2614e-03  5.2521e-03  5.3109e-03  3.6369e+00  6.2517e-03  0:03:29 1523
   478  5.7623e-03  5.4274e-03  5.3205e-03  3.5741e+00  5.7526e-03  0:02:47 1522
   479  5.1167e-03  5.5724e-03  5.3036e-03  3.4656e+00  5.1066e-03  0:02:14 1521
   480  4.4026e-03  5.6881e-03  5.2613e-03  3.3352e+00  4.3917e-03  0:01:47 1520
   481  3.7766e-03  5.7657e-03  5.1951e-03  3.2465e+00  3.7648e-03  0:01:25 1519
   482  3.4349e-03  5.8270e-03  5.1066e-03  3.1638e+00  3.4225e-03  0:01:08 1518
   483  3.4707e-03  5.8923e-03  4.9984e-03  3.1391e+00  3.4587e-03  0:00:55 1517
   484  3.8365e-03  5.9522e-03  4.8866e-03  3.1571e+00  3.8256e-03  0:00:44 1516

  iter  continuity  x-velocity  y-velocity  z-velocity      energy     time/iter
   485  4.4151e-03  6.0689e-03  4.7690e-03  3.1890e+00  4.4054e-03  0:00:35 1515
   486  5.0429e-03  6.1856e-03  4.6550e-03  3.2053e+00  5.0340e-03  0:00:28 1514
   487  5.5238e-03  6.3057e-03  4.5499e-03  3.2030e+00  5.5154e-03  0:00:22 1513
   488  5.8180e-03  6.4429e-03  4.4447e-03  3.1749e+00  5.8098e-03  0:00:18 1512
   489  5.8762e-03  6.5101e-03  4.3505e-03  3.1281e+00  5.8681e-03  0:05:16 1511
   490  5.7191e-03  6.5495e-03  4.2414e-03  3.0679e+00  5.7111e-03  0:04:13 1510
   491  5.3766e-03  6.5298e-03  4.1106e-03  3.0268e+00  5.3686e-03  0:03:22 1509
   492  4.9402e-03  6.4227e-03  3.9584e-03  3.0019e+00  4.9322e-03  0:02:42 1508
   493  4.5167e-03  6.2769e-03  3.7735e-03  3.0052e+00  4.5087e-03  0:02:09 1507
   494  4.1948e-03  6.0797e-03  3.5798e-03  3.0846e+00  4.1867e-03  0:01:43 1506
   495  4.2171e-03  5.8671e-03  3.3881e-03  3.2240e+00  4.2091e-03  0:01:23 1505

  iter  continuity  x-velocity  y-velocity  z-velocity      energy     time/iter
   496  4.7150e-03  5.6652e-03  3.2156e-03  3.3800e+00  4.7074e-03  0:01:06 1504
   497  5.4911e-03  5.4786e-03  3.0654e-03  3.5164e+00  5.4838e-03  0:00:53 1503
   498  6.2414e-03  5.3116e-03  2.9382e-03  3.6765e+00  6.2343e-03  0:00:42 1502
   499  6.7978e-03  5.1849e-03  2.8333e-03  3.8208e+00  6.7906e-03  0:00:34 1501
   500  7.1416e-03  5.0997e-03  2.7566e-03  4.0342e+00  7.1344e-03  0:00:27 1500
   501  7.2575e-03  5.0454e-03  2.7059e-03  4.3076e+00  7.2502e-03  0:00:22 1499
   502  7.2679e-03  5.0241e-03  2.6784e-03  4.5821e+00  7.2606e-03  0:00:17 1498
   503  7.0346e-03  5.0461e-03  2.6633e-03  4.7929e+00  7.0270e-03  0:05:13 1497
   504  6.5295e-03  5.0748e-03  2.6481e-03  4.8965e+00  6.5215e-03  0:04:10 1496
   505  5.7727e-03  5.0654e-03  2.6301e-03  4.8797e+00  5.7640e-03  0:03:20 1495
   506  4.8780e-03  4.9937e-03  2.6027e-03  5.0202e+00  4.8680e-03  0:02:40 1494

  iter  continuity  x-velocity  y-velocity  z-velocity      energy     time/iter
   507  4.0145e-03  4.8757e-03  2.5591e-03  5.3652e+00  4.0026e-03  0:02:08 1493
   508  3.4475e-03  4.7296e-03  2.4946e-03  5.8749e+00  3.4335e-03  0:01:42 1492
   509  3.3900e-03  4.5792e-03  2.4355e-03  6.4970e+00  3.3751e-03  0:01:22 1491
   510  3.8132e-03  4.4577e-03  2.3781e-03  7.1873e+00  3.7990e-03  0:01:05 1490
   511  4.5175e-03  4.3868e-03  2.3510e-03  7.7094e+00  4.5043e-03  0:00:52 1489
   512  5.2402e-03  4.4188e-03  2.3534e-03  8.0751e+00  5.2277e-03  0:00:42 1488
   513  5.7951e-03  4.4762e-03  2.4091e-03  8.3500e+00  5.7827e-03  0:00:33 1487
   514  6.1058e-03  4.5806e-03  2.4915e-03  8.4574e+00  6.0932e-03  0:00:27 1486
   515  6.1928e-03  4.6685e-03  2.5926e-03  8.5143e+00  6.1796e-03  0:00:21 1485
   516  6.0773e-03  4.7171e-03  2.6910e-03  8.4384e+00  6.0634e-03  0:00:17 1484
   517  5.7900e-03  4.7199e-03  2.7624e-03  8.3954e+00  5.7752e-03  0:00:14 1483

  iter  continuity  x-velocity  y-velocity  z-velocity      energy     time/iter
   518  5.3673e-03  4.6437e-03  2.8130e-03  8.3392e+00  5.3512e-03  0:05:07 1482
   519  4.9070e-03  4.5177e-03  2.8587e-03  8.2475e+00  4.8894e-03  0:04:06 1481
   520  4.5649e-03  4.3596e-03  2.9069e-03  8.1829e+00  4.5459e-03  0:03:16 1480
   521  4.5756e-03  4.2065e-03  2.9736e-03  8.2641e+00  4.5561e-03  0:02:37 1479
   522  4.9974e-03  4.0876e-03  3.0719e-03  8.4510e+00  4.9787e-03  0:02:06 1478
   523  5.6760e-03  4.0104e-03  3.1993e-03  8.6886e+00  5.6585e-03  0:01:40 1477
   524  6.3652e-03  3.9737e-03  3.3516e-03  8.8847e+00  6.3486e-03  0:01:20 1476
   525  6.8815e-03  3.9951e-03  3.5202e-03  9.1032e+00  6.8652e-03  0:01:04 1475
   526  7.2110e-03  4.0810e-03  3.7009e-03  9.4049e+00  7.1947e-03  0:00:51 1474
   527  7.3030e-03  4.2062e-03  3.8846e-03  9.5900e+00  7.2864e-03  0:00:41 1473
   528  7.1443e-03  4.3363e-03  4.0647e-03  9.6866e+00  7.1270e-03  0:00:33 1472

  iter  continuity  x-velocity  y-velocity  z-velocity      energy     time/iter
   529  6.7740e-03  4.4663e-03  4.2312e-03  9.6517e+00  6.7555e-03  0:00:26 1471
   530  6.2141e-03  4.5678e-03  4.3772e-03  9.4115e+00  6.1937e-03  0:00:21 1470
   531  5.4971e-03  4.6046e-03  4.4996e-03  9.0142e+00  5.4740e-03  0:00:17 1469
   532  4.6875e-03  4.5775e-03  4.5966e-03  8.5952e+00  4.6604e-03  0:05:07 1468
   533  3.9361e-03  4.4885e-03  4.6653e-03  8.2587e+00  3.9037e-03  0:04:05 1467
   534  3.4121e-03  4.3695e-03  4.7116e-03  8.1973e+00  3.3744e-03  0:03:16 1466
   535  3.2705e-03  4.2450e-03  4.7456e-03  8.4238e+00  3.2307e-03  0:02:37 1465
   536  3.5628e-03  4.1792e-03  4.7765e-03  8.8863e+00  3.5258e-03  0:02:05 1464
   537  4.1416e-03  4.1726e-03  4.8123e-03  9.3874e+00  4.1092e-03  0:01:40 1463
   538  4.8132e-03  4.2128e-03  4.8628e-03  9.8354e+00  4.7848e-03  0:01:20 1462
   539  5.3856e-03  4.3369e-03  4.9172e-03  1.0167e+01  5.3599e-03  0:01:04 1461

  iter  continuity  x-velocity  y-velocity  z-velocity      energy     time/iter
   540  5.7551e-03  4.4781e-03  4.9805e-03  1.0419e+01  5.7309e-03  0:00:51 1460
   541  5.9241e-03  4.6300e-03  5.0430e-03  1.0596e+01  5.9007e-03  0:00:41 1459
   542  5.9260e-03  4.7528e-03  5.1019e-03  1.0701e+01  5.9030e-03  0:00:33 1458
   543  5.7948e-03  4.8470e-03  5.1454e-03  1.0733e+01  5.7719e-03  0:00:26 1457
   544  5.5496e-03  4.8907e-03  5.1762e-03  1.0719e+01  5.5267e-03  0:00:21 1456
   545  5.2228e-03  4.8890e-03  5.1918e-03  1.0640e+01  5.1996e-03  0:00:17 1455
   546  4.8688e-03  4.8548e-03  5.1945e-03  1.0658e+01  4.8451e-03  0:00:13 1454
   547  4.5802e-03  4.8027e-03  5.1882e-03  1.0809e+01  4.5563e-03  0:05:01 1453
   548  4.4906e-03  4.7470e-03  5.1780e-03  1.1088e+01  4.4671e-03  0:04:01 1452
   549  4.6515e-03  4.7055e-03  5.1680e-03  1.1474e+01  4.6294e-03  0:03:13 1451
   550  5.0062e-03  4.6915e-03  5.1608e-03  1.1886e+01  4.9860e-03  0:02:34 1450

  iter  continuity  x-velocity  y-velocity  z-velocity      energy     time/iter
   551  5.3982e-03  4.7024e-03  5.1567e-03  1.2236e+01  5.3797e-03  0:02:03 1449
   552  5.7221e-03  4.7556e-03  5.1541e-03  1.2525e+01  5.7048e-03  0:01:38 1448
   553  5.9335e-03  4.8492e-03  5.1550e-03  1.3029e+01  5.9170e-03  0:01:19 1447
   554  5.9919e-03  4.9473e-03  5.1478e-03  1.3555e+01  5.9758e-03  0:01:03 1446
   555  5.8991e-03  5.0483e-03  5.1322e-03  1.3754e+01  5.8830e-03  0:00:50 1445
   556  5.6444e-03  5.1382e-03  5.1048e-03  1.3804e+01  5.6279e-03  0:00:40 1444
   557  5.1991e-03  5.1981e-03  5.0620e-03  1.3472e+01  5.1817e-03  0:00:32 1443
   558  4.5954e-03  5.2291e-03  4.9965e-03  1.2814e+01  4.5763e-03  0:00:26 1442
   559  3.9109e-03  5.2136e-03  4.9140e-03  1.2003e+01  3.8891e-03  0:00:21 1441
   560  3.3006e-03  5.1741e-03  4.8131e-03  1.1409e+01  3.2754e-03  0:00:16 1440
   561  2.9166e-03  5.0816e-03  4.7019e-03  1.1214e+01  2.8887e-03  0:05:01 1439

  iter  continuity  x-velocity  y-velocity  z-velocity      energy     time/iter
   562  2.8880e-03  4.9864e-03  4.5817e-03  1.1656e+01  2.8600e-03  0:04:01 1438
   563  3.2103e-03  4.9016e-03  4.4611e-03  1.2783e+01  3.1853e-03  0:03:12 1437
   564  3.7291e-03  4.8533e-03  4.3455e-03  1.4249e+01  3.7076e-03  0:02:34 1436
   565  4.2822e-03  4.8297e-03  4.2411e-03  1.5983e+01  4.2634e-03  0:02:03 1435
   566  4.7478e-03  4.8277e-03  4.1495e-03  1.7442e+01  4.7308e-03  0:01:38 1434
   567  5.0937e-03  4.8495e-03  4.0676e-03  1.8801e+01  5.0778e-03  0:01:19 1433
   568  5.2937e-03  4.8748e-03  3.9969e-03  1.9847e+01  5.2785e-03  0:01:03 1432
   569  5.3443e-03  4.8998e-03  3.9312e-03  2.0762e+01  5.3295e-03  0:00:50 1431
   570  5.2232e-03  4.9040e-03  3.8692e-03  2.1432e+01  5.2085e-03  0:00:40 1430
   571  5.0285e-03  4.8842e-03  3.8051e-03  2.1646e+01  5.0137e-03  0:00:32 1429
   572  4.7353e-03  4.8289e-03  3.7332e-03  2.1708e+01  4.7201e-03  0:00:26 1428

  iter  continuity  x-velocity  y-velocity  z-velocity      energy     time/iter
   573  4.3645e-03  4.7384e-03  3.6531e-03  2.1663e+01  4.3488e-03  0:00:21 1427
   574  3.9964e-03  4.6169e-03  3.5673e-03  2.1741e+01  3.9798e-03  0:00:16 1426
   575  3.7439e-03  4.4748e-03  3.4797e-03  2.1981e+01  3.7267e-03  0:00:13 1425
   576  3.7207e-03  4.3225e-03  3.3963e-03  2.2495e+01  3.7037e-03  0:04:55 1424
   577  3.9613e-03  4.1723e-03  3.3213e-03  2.3207e+01  3.9452e-03  0:03:56 1423
   578  4.3608e-03  4.0446e-03  3.2634e-03  2.3946e+01  4.3459e-03  0:03:09 1422
   579  4.7814e-03  3.9617e-03  3.2210e-03  2.4826e+01  4.7674e-03  0:02:31 1421
   580  5.1378e-03  3.9296e-03  3.2214e-03  2.5651e+01  5.1245e-03  0:02:01 1420
   581  5.3583e-03  3.9012e-03  3.2138e-03  2.6860e+01  5.3452e-03  0:01:36 1419
   582  5.4121e-03  3.9151e-03  3.2240e-03  2.8408e+01  5.3989e-03  0:01:17 1418
   583  5.3081e-03  3.9575e-03  3.2488e-03  2.9343e+01  5.2945e-03  0:01:02 1417

  iter  continuity  x-velocity  y-velocity  z-velocity      energy     time/iter
   584  5.0060e-03  3.9967e-03  3.2714e-03  2.9819e+01  4.9915e-03  0:00:49 1416
   585  4.5575e-03  4.0074e-03  3.2854e-03  2.9442e+01  4.5417e-03  0:00:39 1415
   586  3.9868e-03  3.9876e-03  3.2869e-03  2.8366e+01  3.9689e-03  0:00:31 1414
   587  3.3527e-03  3.9342e-03  3.2744e-03  2.7077e+01  3.3316e-03  0:00:25 1413
   588  2.8092e-03  3.8431e-03  3.2559e-03  2.6001e+01  2.7842e-03  0:00:20 1412
   589  2.5292e-03  3.7263e-03  3.2323e-03  2.5984e+01  2.5015e-03  0:00:16 1411
   590  2.6346e-03  3.6047e-03  3.2078e-03  2.7423e+01  2.6079e-03  0:04:55 1410
   591  3.0621e-03  3.4926e-03  3.1913e-03  3.0613e+01  3.0390e-03  0:03:56 1409
   592  3.6250e-03  3.4163e-03  3.1885e-03  3.4759e+01  3.6051e-03  0:03:08 1408
   593  4.1805e-03  3.3942e-03  3.2031e-03  3.9476e+01  4.1631e-03  0:02:31 1407
   594  4.6369e-03  3.4039e-03  3.2396e-03  4.3651e+01  4.6210e-03  0:02:00 1406

  iter  continuity  x-velocity  y-velocity  z-velocity      energy     time/iter
   595  4.9404e-03  3.4523e-03  3.2894e-03  4.7739e+01  4.9253e-03  0:01:36 1405
   596  5.0755e-03  3.5121e-03  3.3510e-03  5.0665e+01  5.0609e-03  0:01:17 1404
   597  5.0587e-03  3.5743e-03  3.4182e-03  5.3151e+01  5.0442e-03  0:01:02 1403
   598  4.8831e-03  3.6174e-03  3.4875e-03  5.4886e+01  4.8684e-03  0:00:49 1402
   599  4.5419e-03  3.6461e-03  3.5518e-03  5.5829e+01  4.5267e-03  0:00:39 1401
   600  4.1203e-03  3.6454e-03  3.6062e-03  5.5749e+01  4.1042e-03  0:00:31 1400
   601  3.6946e-03  3.6174e-03  3.6492e-03  5.5878e+01  3.6774e-03  0:00:25 1399
   602  3.3683e-03  3.5653e-03  3.6829e-03  5.6210e+01  3.3500e-03  0:00:20 1398
   603  3.2265e-03  3.4975e-03  3.7095e-03  5.7145e+01  3.2078e-03  0:00:16 1397
   604  3.3335e-03  3.4262e-03  3.7322e-03  5.8546e+01  3.3155e-03  0:00:13 1396
   605  3.6487e-03  3.3590e-03  3.7520e-03  6.0258e+01  3.6321e-03  0:00:10 1395

  iter  continuity  x-velocity  y-velocity  z-velocity      energy     time/iter
   606  4.0532e-03  3.3151e-03  3.7726e-03  6.1649e+01  4.0381e-03  0:04:47 1394
   607  4.4244e-03  3.3192e-03  3.7940e-03  6.3031e+01  4.4103e-03  0:03:49 1393
   608  4.7162e-03  3.3671e-03  3.8364e-03  6.3740e+01  4.7026e-03  0:03:03 1392
   609  4.8848e-03  3.4013e-03  3.8562e-03  6.4976e+01  4.8714e-03  0:02:27 1391
   610  4.9025e-03  3.4806e-03  3.8795e-03  6.7003e+01  4.8891e-03  0:01:57 1390
   611  4.7853e-03  3.5885e-03  3.9074e-03  6.9549e+01  4.7715e-03  0:01:34 1389
   612  4.5130e-03  3.6977e-03  3.9271e-03  7.0652e+01  4.4983e-03  0:01:15 1388
   613  4.0994e-03  3.7788e-03  3.9323e-03  7.0682e+01  4.0835e-03  0:01:00 1387
   614  3.5901e-03  3.8228e-03  3.9228e-03  6.9300e+01  3.5722e-03  0:00:48 1386
   615  3.0469e-03  3.8447e-03  3.8929e-03  6.7579e+01  3.0263e-03  0:00:38 1385
   616  2.5674e-03  3.8353e-03  3.8511e-03  6.6994e+01  2.5435e-03  0:00:31 1384

  iter  continuity  x-velocity  y-velocity  z-velocity      energy     time/iter
   617  2.3071e-03  3.8013e-03  3.8003e-03  6.9047e+01  2.2810e-03  0:00:24 1383
   618  2.3921e-03  3.7622e-03  3.7451e-03  7.5064e+01  2.3675e-03  0:00:20 1382
   619  2.7832e-03  3.7324e-03  3.6909e-03  8.5552e+01  2.7624e-03  0:00:16 1381
   620  3.3210e-03  3.7244e-03  3.6419e-03  9.8683e+01  3.3038e-03  0:00:12 1380
   621  3.8520e-03  3.7493e-03  3.6001e-03  1.1226e+02  3.8373e-03  0:04:46 1379
   622  4.2920e-03  3.8030e-03  3.5692e-03  1.2668e+02  4.2790e-03  0:03:48 1378
   623  4.5832e-03  3.8695e-03  3.5518e-03  1.4089e+02  4.5713e-03  0:03:03 1377
   624  4.7052e-03  3.9487e-03  3.5412e-03  1.5288e+02  4.6939e-03  0:02:26 1376
   625  4.6565e-03  4.0147e-03  3.5363e-03  1.6256e+02  4.6456e-03  0:01:57 1375
   626  4.4212e-03  4.0656e-03  3.5299e-03  1.6787e+02  4.4104e-03  0:01:33 1374
   627  4.0412e-03  4.0874e-03  3.5192e-03  1.7116e+02  4.0302e-03  0:01:15 1373

  iter  continuity  x-velocity  y-velocity  z-velocity      energy     time/iter
   628  3.5817e-03  4.0772e-03  3.5001e-03  1.7185e+02  3.5701e-03  0:01:00 1372
   629  3.1276e-03  4.0353e-03  3.4716e-03  1.7359e+02  3.1154e-03  0:00:48 1371
   630  2.7849e-03  3.9674e-03  3.4348e-03  1.7566e+02  2.7721e-03  0:00:38 1370
   631  2.6580e-03  3.8806e-03  3.3926e-03  1.7899e+02  2.6451e-03  0:00:30 1369
   632  2.8181e-03  3.7857e-03  3.3475e-03  1.8350e+02  2.8063e-03  0:00:24 1368
   633  3.1916e-03  3.6931e-03  3.3023e-03  1.8825e+02  3.1813e-03  0:00:19 1367
   634  3.6331e-03  3.6144e-03  3.2602e-03  1.9172e+02  3.6238e-03  0:00:16 1366
   635  4.0333e-03  3.5687e-03  3.2237e-03  1.9447e+02  4.0248e-03  0:00:12 1365
   636  4.3324e-03  3.5473e-03  3.2011e-03  1.9734e+02  4.3242e-03  0:00:10 1364
   637  4.5206e-03  3.5276e-03  3.1619e-03  2.0007e+02  4.5126e-03  0:04:41 1363
   638  4.5722e-03  3.5394e-03  3.1316e-03  2.0422e+02  4.5643e-03  0:03:44 1362

  iter  continuity  x-velocity  y-velocity  z-velocity      energy     time/iter
   639  4.4736e-03  3.5745e-03  3.1069e-03  2.0711e+02  4.4653e-03  0:02:59 1361
   640  4.2389e-03  3.6238e-03  3.0785e-03  2.0556e+02  4.2302e-03  0:02:23 1360
   641  3.8956e-03  3.6665e-03  3.0431e-03  2.0322e+02  3.8862e-03  0:01:55 1359
   642  3.4746e-03  3.6859e-03  2.9965e-03  2.0040e+02  3.4641e-03  0:01:32 1358
   643  3.0032e-03  3.6699e-03  2.9378e-03  1.9802e+02  2.9913e-03  0:01:13 1357
   644  2.5358e-03  3.6178e-03  2.8646e-03  1.9817e+02  2.5219e-03  0:00:59 1356
   645  2.1734e-03  3.5344e-03  2.7799e-03  2.0279e+02  2.1574e-03  0:00:47 1355
   646  2.0478e-03  3.4313e-03  2.6885e-03  2.1273e+02  2.0310e-03  0:00:37 1354
   647  2.2124e-03  3.3208e-03  2.5961e-03  2.2808e+02  2.1970e-03  0:00:30 1353
   648  2.5656e-03  3.2220e-03  2.5093e-03  2.4950e+02  2.5523e-03  0:00:24 1352
   649  2.9668e-03  3.1477e-03  2.4359e-03  2.7385e+02  2.9553e-03  0:00:19 1351

  iter  continuity  x-velocity  y-velocity  z-velocity      energy     time/iter
   650  3.3230e-03  3.1050e-03  2.3801e-03  2.9881e+02  3.3127e-03  0:00:15 1350
   651  3.5873e-03  3.0950e-03  2.3423e-03  3.2208e+02  3.5777e-03  0:00:12 1349
   652  3.7268e-03  3.1092e-03  2.3207e-03  3.4284e+02  3.7177e-03  0:00:10 1348
   653  3.7301e-03  3.1301e-03  2.3109e-03  3.6062e+02  3.7211e-03  0:00:08 1347
   654  3.5903e-03  3.1436e-03  2.3074e-03  3.7501e+02  3.5813e-03  0:04:35 1346
   655  3.3288e-03  3.1374e-03  2.3039e-03  3.8562e+02  3.3195e-03  0:03:40 1345
   656  2.9739e-03  3.1034e-03  2.2965e-03  3.9215e+02  2.9640e-03  0:02:56 1344
   657  2.5840e-03  3.0395e-03  2.2838e-03  3.9639e+02  2.5732e-03  0:02:21 1343
   658  2.2433e-03  2.9507e-03  2.2671e-03  3.9901e+02  2.2315e-03  0:01:52 1342
   659  2.0580e-03  2.8448e-03  2.2502e-03  4.0094e+02  2.0456e-03  0:01:30 1341
   660  2.0953e-03  2.7311e-03  2.2366e-03  4.0261e+02  2.0835e-03  0:01:12 1340

  iter  continuity  x-velocity  y-velocity  z-velocity      energy     time/iter
   661  2.3136e-03  2.6206e-03  2.2310e-03  4.0431e+02  2.3030e-03  0:00:57 1339
   662  2.6087e-03  2.5205e-03  2.2327e-03  4.0698e+02  2.5992e-03  0:00:46 1338
   663  2.8906e-03  2.4395e-03  2.2437e-03  4.0858e+02  2.8819e-03  0:00:37 1337
   664  3.1094e-03  2.3961e-03  2.2673e-03  4.1231e+02  3.1012e-03  0:00:29 1336
   665  3.2342e-03  2.3670e-03  2.2863e-03  4.1604e+02  3.2262e-03  0:00:23 1335
   666  3.2533e-03  2.3555e-03  2.3111e-03  4.1811e+02  3.2453e-03  0:00:19 1334
   667  3.1700e-03  2.3509e-03  2.3338e-03  4.1606e+02  3.1618e-03  0:00:15 1333
   668  3.0003e-03  2.3576e-03  2.3509e-03  4.0878e+02  2.9916e-03  0:00:12 1332
   669  2.7499e-03  2.3642e-03  2.3628e-03  3.9688e+02  2.7404e-03  0:00:10 1331
   670  2.4510e-03  2.3677e-03  2.3675e-03  3.8431e+02  2.4403e-03  0:04:34 1330
   671  2.1405e-03  2.3637e-03  2.3634e-03  3.7523e+02  2.1284e-03  0:03:39 1329

  iter  continuity  x-velocity  y-velocity  z-velocity      energy     time/iter
   672  1.8595e-03  2.3508e-03  2.3495e-03  3.7318e+02  1.8457e-03  0:02:55 1328
   673  1.6660e-03  2.3260e-03  2.3292e-03  3.8068e+02  1.6507e-03  0:02:20 1327
   674  1.6170e-03  2.2950e-03  2.3044e-03  3.9837e+02  1.6013e-03  0:01:52 1326
   675  1.7095e-03  2.2649e-03  2.2777e-03  4.2623e+02  1.6947e-03  0:01:29 1325
   676  1.8854e-03  2.2408e-03  2.2514e-03  4.6082e+02  1.8720e-03  0:01:11 1324
   677  2.0759e-03  2.2259e-03  2.2283e-03  4.9975e+02  2.0640e-03  0:00:57 1323
   678  2.2274e-03  2.2237e-03  2.2105e-03  5.4057e+02  2.2164e-03  0:00:46 1322
   679  2.3088e-03  2.2320e-03  2.1985e-03  5.8075e+02  2.2985e-03  0:00:36 1321
   680  2.3025e-03  2.2490e-03  2.1918e-03  6.1959e+02  2.2924e-03  0:00:29 1320
   681  2.2080e-03  2.2702e-03  2.1886e-03  6.5621e+02  2.1979e-03  0:00:23 1319
   682  2.0377e-03  2.2892e-03  2.1866e-03  6.9004e+02  2.0274e-03  0:00:19 1318

  iter  continuity  x-velocity  y-velocity  z-velocity      energy     time/iter
   683  1.8137e-03  2.3018e-03  2.1839e-03  7.2043e+02  1.8028e-03  0:04:38 1317
   684  1.5703e-03  2.3056e-03  2.1792e-03  7.4740e+02  1.5585e-03  0:03:42 1316
   685  1.3496e-03  2.3000e-03  2.1722e-03  7.7021e+02  1.3367e-03  0:02:58 1315
   686  1.2046e-03  2.2853e-03  2.1630e-03  7.8861e+02  1.1910e-03  0:02:22 1314
   687  1.1616e-03  2.2627e-03  2.1522e-03  8.0157e+02  1.1484e-03  0:01:54 1313
   688  1.2042e-03  2.2350e-03  2.1403e-03  8.0933e+02  1.1922e-03  0:01:31 1312
   689  1.2860e-03  2.2045e-03  2.1277e-03  8.1107e+02  1.2752e-03  0:01:13 1311
   690  1.3647e-03  2.1730e-03  2.1129e-03  8.0595e+02  1.3549e-03  0:00:58 1310
   691  1.4126e-03  2.1437e-03  2.0973e-03  7.9436e+02  1.4035e-03  0:00:46 1309
   692  1.4210e-03  2.1169e-03  2.0804e-03  7.7763e+02  1.4121e-03  0:00:37 1308
   693  1.3938e-03  2.0933e-03  2.0616e-03  7.5828e+02  1.3850e-03  0:00:30 1307

  iter  continuity  x-velocity  y-velocity  z-velocity      energy     time/iter
   694  1.3429e-03  2.0736e-03  2.0397e-03  7.3869e+02  1.3339e-03  0:00:24 1306
   695  1.2865e-03  2.0578e-03  2.0141e-03  7.2096e+02  1.2772e-03  0:00:19 1305
   696  1.2413e-03  2.0458e-03  1.9850e-03  7.0746e+02  1.2317e-03  0:00:15 1304
   697  1.2191e-03  2.0361e-03  1.9523e-03  6.9999e+02  1.2093e-03  0:00:12 1303
   698  1.2246e-03  2.0289e-03  1.9157e-03  6.9949e+02  1.2148e-03  0:04:30 1302
   699  1.2504e-03  2.0218e-03  1.8772e-03  7.0600e+02  1.2407e-03  0:03:36 1301
   700  1.2841e-03  2.0151e-03  1.8371e-03  7.1866e+02  1.2746e-03  0:02:53 1300
   701  1.3134e-03  2.0084e-03  1.7958e-03  7.3653e+02  1.3040e-03  0:02:18 1299
   702  1.3288e-03  2.0007e-03  1.7543e-03  7.5828e+02  1.3194e-03  0:01:50 1298
   703  1.3256e-03  1.9922e-03  1.7127e-03  7.8240e+02  1.3162e-03  0:01:28 1297
   704  1.3033e-03  1.9823e-03  1.6715e-03  8.0599e+02  1.2939e-03  0:01:10 1296

  iter  continuity  x-velocity  y-velocity  z-velocity      energy     time/iter
   705  1.2645e-03  1.9704e-03  1.6311e-03  8.2865e+02  1.2550e-03  0:00:56 1295
   706  1.2155e-03  1.9566e-03  1.5915e-03  8.4653e+02  1.2058e-03  0:00:45 1294
   707  1.1620e-03  1.9410e-03  1.5526e-03  8.6018e+02  1.1521e-03  0:00:36 1293
   708  1.1073e-03  1.9235e-03  1.5147e-03  8.6899e+02  1.0972e-03  0:00:29 1292
   709  1.0542e-03  1.9047e-03  1.4782e-03  8.7434e+02  1.0440e-03  0:00:23 1291
   710  1.0067e-03  1.8845e-03  1.4436e-03  8.7763e+02  9.9635e-04  0:00:18 1290
   711  9.6788e-04  1.8610e-03  1.4112e-03  8.7738e+02  9.5750e-04  0:00:15 1289
   712  9.4296e-04  1.8353e-03  1.3813e-03  8.7489e+02  9.3265e-04  0:00:12 1288
   713  9.3505e-04  1.8075e-03  1.3545e-03  8.7164e+02  9.2497e-04  0:00:09 1287
   714  9.4240e-04  1.7776e-03  1.3308e-03  8.6822e+02  9.3265e-04  0:04:25 1286
   715  9.5940e-04  1.7449e-03  1.3108e-03  8.6472e+02  9.5002e-04  0:03:32 1285

  iter  continuity  x-velocity  y-velocity  z-velocity      energy     time/iter
   716  9.7981e-04  1.7120e-03  1.2945e-03  8.5970e+02  9.7076e-04  0:02:49 1284
   717  1.0007e-03  1.6792e-03  1.2821e-03  8.5290e+02  9.9198e-04  0:02:15 1283
   718  1.0204e-03  1.6464e-03  1.2734e-03  8.4435e+02  1.0119e-03  0:01:48 1282
   719  1.0384e-03  1.6142e-03  1.2682e-03  8.3647e+02  1.0300e-03  0:01:26 1281
   720  1.0551e-03  1.5818e-03  1.2658e-03  8.3001e+02  1.0468e-03  0:01:09 1280
   721  1.0656e-03  1.5504e-03  1.2660e-03  8.2699e+02  1.0572e-03  0:00:55 1279
   722  1.0666e-03  1.5207e-03  1.2680e-03  8.2818e+02  1.0581e-03  0:00:44 1278
   723  1.0543e-03  1.4928e-03  1.2716e-03  8.3405e+02  1.0456e-03  0:00:35 1277
   724  1.0337e-03  1.4680e-03  1.2758e-03  8.4302e+02  1.0247e-03  0:00:28 1276
   725  1.0090e-03  1.4469e-03  1.2803e-03  8.5584e+02  9.9961e-04  0:00:23 1275
   726  9.8365e-04  1.4301e-03  1.2850e-03  8.7142e+02  9.7388e-04  0:00:18 1274

  iter  continuity  x-velocity  y-velocity  z-velocity      energy     time/iter
   727  9.6066e-04  1.4171e-03  1.2895e-03  8.8826e+02  9.5051e-04  0:00:14 1273
   728  9.4001e-04  1.4086e-03  1.2936e-03  9.0299e+02  9.2951e-04  0:00:12 1272
   729  9.3176e-04  1.4047e-03  1.2966e-03  9.1521e+02  9.2106e-04  0:00:09 1271
   730  9.3181e-04  1.4039e-03  1.2986e-03  9.2459e+02  9.2104e-04  0:00:07 1270
   731  9.3734e-04  1.4074e-03  1.2997e-03  9.2984e+02  9.2659e-04  0:04:20 1269
   732  9.5132e-04  1.4132e-03  1.3002e-03  9.3305e+02  9.4072e-04  0:03:28 1268
   733  9.7262e-04  1.4213e-03  1.3004e-03  9.3108e+02  9.6226e-04  0:02:46 1267
   734  9.9977e-04  1.4330e-03  1.3004e-03  9.2815e+02  9.8973e-04  0:02:13 1266
   735  1.0407e-03  1.4458e-03  1.3002e-03  9.2716e+02  1.0311e-03  0:01:46 1265
   736  1.0784e-03  1.4575e-03  1.3001e-03  9.2842e+02  1.0692e-03  0:01:25 1264
   737  1.1087e-03  1.4681e-03  1.3001e-03  9.3483e+02  1.0999e-03  0:01:08 1263

  iter  continuity  x-velocity  y-velocity  z-velocity      energy     time/iter
   738  1.1435e-03  1.4778e-03  1.3001e-03  9.4643e+02  1.1350e-03  0:00:54 1262
   739  1.1816e-03  1.4833e-03  1.3008e-03  9.6505e+02  1.1734e-03  0:00:43 1261
   740  1.2245e-03  1.4885e-03  1.3018e-03  9.8833e+02  1.2167e-03  0:00:35 1260
   741  1.2713e-03  1.4922e-03  1.3031e-03  1.0155e+03  1.2639e-03  0:00:28 1259
   742  1.3161e-03  1.4948e-03  1.3053e-03  1.0450e+03  1.3090e-03  0:00:22 1258
   743  1.3623e-03  1.4981e-03  1.3084e-03  1.0726e+03  1.3554e-03  0:00:18 1257
   744  1.4257e-03  1.5043e-03  1.3122e-03  1.0996e+03  1.4191e-03  0:00:14 1256
   745  1.4835e-03  1.5110e-03  1.3163e-03  1.1186e+03  1.4772e-03  0:00:11 1255
   746  1.5267e-03  1.5200e-03  1.3213e-03  1.1309e+03  1.5206e-03  0:04:20 1254
   747  1.5605e-03  1.5255e-03  1.3264e-03  1.1344e+03  1.5544e-03  0:03:28 1253
   748  1.5951e-03  1.5256e-03  1.3316e-03  1.1321e+03  1.5892e-03  0:02:46 1252

  iter  continuity  x-velocity  y-velocity  z-velocity      energy     time/iter
   749  1.6329e-03  1.5298e-03  1.3373e-03  1.1340e+03  1.6270e-03  0:02:13 1251
   750  1.6966e-03  1.5354e-03  1.3425e-03  1.1453e+03  1.6908e-03  0:01:46 1250
   751  1.7574e-03  1.5434e-03  1.3471e-03  1.1706e+03  1.7517e-03  0:01:25 1249
   752  1.8272e-03  1.5457e-03  1.3523e-03  1.2006e+03  1.8216e-03  0:01:08 1248
   753  1.9122e-03  1.5580e-03  1.3558e-03  1.2357e+03  1.9068e-03  0:00:54 1247
   754  1.9958e-03  1.5735e-03  1.3600e-03  1.2784e+03  1.9905e-03  0:00:43 1246
   755  2.0672e-03  1.5905e-03  1.3642e-03  1.3208e+03  2.0619e-03  0:00:35 1245
   756  2.1467e-03  1.6206e-03  1.3670e-03  1.3797e+03  2.1415e-03  0:00:28 1244
   757  2.2123e-03  1.6482e-03  1.3713e-03  1.4314e+03  2.2071e-03  0:00:22 1243
   758  2.2539e-03  1.6704e-03  1.3736e-03  1.4764e+03  2.2487e-03  0:00:18 1242
   759  2.3000e-03  1.7018e-03  1.3753e-03  1.5151e+03  2.2948e-03  0:00:14 1241

  iter  continuity  x-velocity  y-velocity  z-velocity      energy     time/iter
   760  2.3528e-03  1.7341e-03  1.3781e-03  1.5390e+03  2.3476e-03  0:00:11 1240
   761  2.4120e-03  1.7633e-03  1.3803e-03  1.5615e+03  2.4069e-03  0:00:09 1239
   762  2.4679e-03  1.7797e-03  1.3819e-03  1.5751e+03  2.4628e-03  0:00:07 1238
   763  2.5176e-03  1.7848e-03  1.3801e-03  1.5709e+03  2.5125e-03  0:04:13 1237
   764  2.5833e-03  1.7904e-03  1.3794e-03  1.5969e+03  2.5782e-03  0:03:22 1236
   765  2.6735e-03  1.8075e-03  1.3833e-03  1.6402e+03  2.6685e-03  0:02:42 1235
   766  2.7656e-03  1.8361e-03  1.3848e-03  1.6984e+03  2.7607e-03  0:02:09 1234
   767  2.8263e-03  1.8531e-03  1.3852e-03  1.7502e+03  2.8214e-03  0:01:43 1233
   768  2.8870e-03  1.8567e-03  1.3866e-03  1.7874e+03  2.8821e-03  0:01:23 1232
   769  2.9635e-03  1.8822e-03  1.3878e-03  1.8336e+03  2.9587e-03  0:01:06 1231
   770  3.0008e-03  1.8952e-03  1.3923e-03  1.8751e+03  2.9960e-03  0:00:53 1230

  iter  continuity  x-velocity  y-velocity  z-velocity      energy     time/iter
   771  3.0245e-03  1.8977e-03  1.3957e-03  1.9178e+03  3.0197e-03  0:00:42 1229
   772  3.1191e-03  1.9335e-03  1.4012e-03  1.9920e+03  3.1144e-03  0:00:34 1228
   773  3.1737e-03  1.9599e-03  1.4097e-03  2.0408e+03  3.1689e-03  0:00:27 1227
   774  3.1481e-03  1.9627e-03  1.4148e-03  2.0639e+03  3.1433e-03  0:00:22 1226
   775  3.1956e-03  1.9713e-03  1.4178e-03  2.0582e+03  3.1908e-03  0:00:17 1225
   776  3.2091e-03  1.9880e-03  1.4251e-03  2.0350e+03  3.2042e-03  0:00:14 1224
   777  3.1817e-03  2.0115e-03  1.4369e-03  2.0227e+03  3.1768e-03  0:00:11 1223
   778  3.2228e-03  2.0172e-03  1.4474e-03  2.0233e+03  3.2179e-03  0:00:09 1222
   779  3.2358e-03  2.0085e-03  1.4538e-03  2.0190e+03  3.2308e-03  0:00:07 1221
   780  3.2347e-03  1.9865e-03  1.4636e-03  2.0244e+03  3.2296e-03  0:04:10 1220
   781  3.3156e-03  1.9784e-03  1.4781e-03  2.0556e+03  3.3106e-03  0:03:20 1219

  iter  continuity  x-velocity  y-velocity  z-velocity      energy     time/iter
   782  3.3522e-03  2.0081e-03  1.4910e-03  2.1182e+03  3.3471e-03  0:02:39 1218
   783  3.3340e-03  2.0148e-03  1.5058e-03  2.1451e+03  3.3288e-03  0:02:07 1217
   784  3.4029e-03  2.0103e-03  1.5150e-03  2.1673e+03  3.3977e-03  0:01:42 1216
   785  3.4058e-03  2.0261e-03  1.5284e-03  2.1992e+03  3.4006e-03  0:01:21 1215
   786  3.3870e-03  2.0254e-03  1.5433e-03  2.1911e+03  3.3816e-03  0:01:05 1214
   787  3.4019e-03  2.0138e-03  1.5562e-03  2.2064e+03  3.3965e-03  0:00:52 1213
   788  3.4455e-03  2.0288e-03  1.5786e-03  2.2462e+03  3.4400e-03  0:00:42 1212
   789  3.4221e-03  2.0557e-03  1.6011e-03  2.2352e+03  3.4165e-03  0:00:33 1211
   790  3.4272e-03  2.0727e-03  1.6195e-03  2.2306e+03  3.4215e-03  0:00:27 1210
   791  3.4813e-03  2.0611e-03  1.6346e-03  2.2110e+03  3.4755e-03  0:00:21 1209
   792  3.4241e-03  2.0608e-03  1.6544e-03  2.1539e+03  3.4181e-03  0:00:17 1208

  iter  continuity  x-velocity  y-velocity  z-velocity      energy     time/iter
   793  3.3791e-03  2.0779e-03  1.6766e-03  2.1366e+03  3.3730e-03  0:00:14 1207
   794  3.4593e-03  2.0963e-03  1.6978e-03  2.1435e+03  3.4532e-03  0:00:11 1206
   795  3.4606e-03  2.1055e-03  1.7181e-03  2.1760e+03  3.4543e-03  0:00:09 1205
   796  3.4370e-03  2.0887e-03  1.7392e-03  2.1853e+03  3.4306e-03  0:04:08 1204
   797  3.5200e-03  2.0685e-03  1.7591e-03  2.2165e+03  3.5136e-03  0:03:18 1203
   798  3.5202e-03  2.1006e-03  1.7796e-03  2.2600e+03  3.5137e-03  0:02:38 1202
   799  3.5356e-03  2.1127e-03  1.8019e-03  2.2846e+03  3.5290e-03  0:02:07 1201
   800  3.5716e-03  2.1207e-03  1.8202e-03  2.3092e+03  3.5650e-03  0:01:41 1200
   801  3.5449e-03  2.1460e-03  1.8402e-03  2.3097e+03  3.5381e-03  0:01:21 1199
   802  3.5501e-03  2.1631e-03  1.8557e-03  2.2906e+03  3.5431e-03  0:01:05 1198
   803  3.5776e-03  2.1684e-03  1.8702e-03  2.2963e+03  3.5706e-03  0:00:52 1197

  iter  continuity  x-velocity  y-velocity  z-velocity      energy     time/iter
   804  3.5779e-03  2.1853e-03  1.8905e-03  2.2781e+03  3.5708e-03  0:00:41 1196
   805  3.5322e-03  2.2069e-03  1.9120e-03  2.2365e+03  3.5249e-03  0:00:33 1195
   806  3.5677e-03  2.2481e-03  1.9256e-03  2.2430e+03  3.5603e-03  0:00:26 1194
   807  3.6330e-03  2.2409e-03  1.9396e-03  2.2190e+03  3.6255e-03  0:00:21 1193
   808  3.5477e-03  2.2247e-03  1.9566e-03  2.1731e+03  3.5399e-03  0:00:17 1192
   809  3.5565e-03  2.2377e-03  1.9692e-03  2.1617e+03  3.5487e-03  0:00:13 1191
[...]
  1791  2.1998e-03  4.2452e-03  4.8001e-03  1.3432e+03  2.1687e-03  0:00:14  209
  1792  2.1789e-03  4.2284e-03  4.7654e-03  1.2955e+03  2.1478e-03  0:00:11  208
  1793  2.1205e-03  4.2119e-03  4.7360e-03  1.2359e+03  2.0889e-03  0:00:09  207

  iter  continuity  x-velocity  y-velocity  z-velocity      energy     time/iter
  1794  2.0691e-03  4.2064e-03  4.7051e-03  1.1867e+03  2.0372e-03  0:00:07  206
  1795  2.0035e-03  4.2030e-03  4.6702e-03  1.1663e+03  1.9710e-03  0:00:06  205
  1796  1.9687e-03  4.1907e-03  4.6303e-03  1.1681e+03  1.9361e-03  0:00:04  204
  1797  1.9945e-03  4.1814e-03  4.5865e-03  1.1777e+03  1.9626e-03  0:00:04  203
  1798  2.0357e-03  4.1750e-03  4.5412e-03  1.2011e+03  2.0047e-03  0:00:03  202
  1799  2.0388e-03  4.1673e-03  4.4950e-03  1.2236e+03  2.0080e-03  0:00:02  201
  1800  2.0182e-03  4.1563e-03  4.4478e-03  1.2432e+03  1.9873e-03  0:00:02  200
  1801  1.9765e-03  4.1473e-03  4.3986e-03  1.2602e+03  1.9450e-03  0:00:01  199
  1802  1.9566e-03  4.1424e-03  4.3480e-03  1.2773e+03  1.9249e-03  0:00:01  198
  1803  1.9279e-03  4.1362e-03  4.2965e-03  1.2898e+03  1.8958e-03  0:00:01  197
  1804  1.9017e-03  4.1243e-03  4.2442e-03  1.3069e+03  1.8692e-03  0:00:01  196

  iter  continuity  x-velocity  y-velocity  z-velocity      energy     time/iter
  1805  1.9635e-03  4.1156e-03  4.1921e-03  1.3360e+03  1.9321e-03  0:00:40  195
  1806  2.0360e-03  4.1023e-03  4.1418e-03  1.3515e+03  2.0057e-03  0:00:31  194
  1807  2.0904e-03  4.0896e-03  4.0949e-03  1.3562e+03  2.0609e-03  0:00:25  193
  1808  2.1021e-03  4.0751e-03  4.0523e-03  1.3442e+03  2.0727e-03  0:00:20  192
  1809  2.0915e-03  4.0641e-03  4.0144e-03  1.3400e+03  2.0620e-03  0:00:16  191
  1810  2.0943e-03  4.0673e-03  3.9801e-03  1.3488e+03  2.0650e-03  0:00:13  190
  1811  2.0654e-03  4.0517e-03  3.9486e-03  1.3599e+03  2.0359e-03  0:00:10  189
  1812  2.0981e-03  4.0433e-03  3.9213e-03  1.4018e+03  2.0692e-03  0:00:08  188
  1813  2.1581e-03  4.0400e-03  3.8999e-03  1.4553e+03  2.1301e-03  0:00:06  187
  1814  2.1974e-03  4.0359e-03  3.8831e-03  1.5035e+03  2.1701e-03  0:00:05  186
  1815  2.2227e-03  4.0282e-03  3.8732e-03  1.5470e+03  2.1959e-03  0:00:04  185

  iter  continuity  x-velocity  y-velocity  z-velocity      energy     time/iter
  1816  2.2328e-03  4.0172e-03  3.8712e-03  1.5891e+03  2.2064e-03  0:00:03  184
  1817  2.2164e-03  4.0131e-03  3.8751e-03  1.6148e+03  2.1901e-03  0:00:03  183
  1818  2.2052e-03  4.0162e-03  3.8820e-03  1.6503e+03  2.1790e-03  0:00:02  182
  1819  2.2237e-03  4.0251e-03  3.8915e-03  1.6728e+03  2.1981e-03  0:00:02  181
  1820  2.2328e-03  4.0308e-03  3.9030e-03  1.7030e+03  2.2077e-03  0:00:01  180
  1821  2.2852e-03  4.0430e-03  3.9171e-03  1.7396e+03  2.2611e-03  0:00:01  179
  1822  2.3701e-03  4.0635e-03  3.9336e-03  1.7692e+03  2.3473e-03  0:00:01  178
  1823  2.4549e-03  4.0799e-03  3.9519e-03  1.8024e+03  2.4333e-03  0:00:01  177
  1824  2.5436e-03  4.1073e-03  3.9729e-03  1.8405e+03  2.5231e-03  0:00:01  176
  1825  2.5879e-03  4.1384e-03  3.9944e-03  1.8773e+03  2.5683e-03  0:00:35  175
  1826  2.6366e-03  4.1640e-03  4.0162e-03  1.9265e+03  2.6180e-03  0:00:28  174

  iter  continuity  x-velocity  y-velocity  z-velocity      energy     time/iter
  1827  2.7417e-03  4.2049e-03  4.0358e-03  1.9960e+03  2.7242e-03  0:00:22  173
  1828  2.8686e-03  4.2615e-03  4.0517e-03  2.0863e+03  2.8523e-03  0:00:18  172
  1829  2.9176e-03  4.2953e-03  4.0653e-03  2.1664e+03  2.9021e-03  0:00:14  171
  1830  2.9773e-03  4.3343e-03  4.0757e-03  2.2319e+03  2.9626e-03  0:00:11  170
  1831  3.0323e-03  4.3939e-03  4.0852e-03  2.2946e+03  3.0184e-03  0:00:09  169
  1832  3.1068e-03  4.4571e-03  4.0920e-03  2.3691e+03  3.0937e-03  0:00:07  168
  1833  3.1600e-03  4.5235e-03  4.0933e-03  2.4345e+03  3.1476e-03  0:00:06  167
  1834  3.2079e-03  4.5831e-03  4.0891e-03  2.4995e+03  3.1962e-03  0:00:05  166
  1835  3.2880e-03  4.6563e-03  4.0788e-03  2.5544e+03  3.2770e-03  0:00:04  165
  1836  3.3976e-03  4.7411e-03  4.0625e-03  2.6055e+03  3.3874e-03  0:00:03  164
  1837  3.5411e-03  4.8123e-03  4.0381e-03  2.6496e+03  3.5317e-03  0:00:02  163

  iter  continuity  x-velocity  y-velocity  z-velocity      energy     time/iter
  1838  3.6968e-03  4.8987e-03  4.0087e-03  2.7089e+03  3.6881e-03  0:00:02  162
  1839  3.8190e-03  4.9905e-03  3.9756e-03  2.7655e+03  3.8109e-03  0:00:01  161
  1840  3.9375e-03  5.0641e-03  3.9404e-03  2.8190e+03  3.9299e-03  0:00:01  160
  1841  4.0877e-03  5.1595e-03  3.9016e-03  2.8878e+03  4.0805e-03  0:00:01  159
  1842  4.2162e-03  5.2610e-03  3.8552e-03  2.9646e+03  4.2095e-03  0:00:01  158
  1843  4.3084e-03  5.3273e-03  3.8049e-03  3.0460e+03  4.3020e-03  0:00:01  157
  1844  4.4453e-03  5.3910e-03  3.7521e-03  3.1259e+03  4.4392e-03  0:00:32  156
  1845  4.5875e-03  5.4702e-03  3.7004e-03  3.2091e+03  4.5816e-03  0:00:25  155
  1846  4.7004e-03  5.5549e-03  3.6485e-03  3.2986e+03  4.6947e-03  0:00:20  154
  1847  4.7359e-03  5.6115e-03  3.5934e-03  3.3576e+03  4.7304e-03  0:00:16  153
  1848  4.7561e-03  5.6388e-03  3.5390e-03  3.3792e+03  4.7509e-03  0:00:13  152

  iter  continuity  x-velocity  y-velocity  z-velocity      energy     time/iter
  1849  4.8105e-03  5.6983e-03  3.4864e-03  3.3997e+03  4.8054e-03  0:00:10  151
  1850  4.8545e-03  5.7605e-03  3.4334e-03  3.4111e+03  4.8497e-03  0:00:08  150
  1851  4.8636e-03  5.7954e-03  3.3771e-03  3.4055e+03  4.8590e-03  0:00:06  149
  1852  4.9523e-03  5.8270e-03  3.3181e-03  3.3865e+03  4.9479e-03  0:00:05  148
  1853  5.0737e-03  5.8677e-03  3.2526e-03  3.3544e+03  5.0694e-03  0:00:04  147
  1854  5.1534e-03  5.9026e-03  3.1840e-03  3.3136e+03  5.1493e-03  0:00:03  146
  1855  5.2049e-03  5.9157e-03  3.1217e-03  3.2746e+03  5.2009e-03  0:00:03  145
  1856  5.2352e-03  5.9436e-03  3.0650e-03  3.2360e+03  5.2311e-03  0:00:02  144
  1857  5.2922e-03  5.9632e-03  3.0017e-03  3.2251e+03  5.2881e-03  0:00:02  143
  1858  5.3374e-03  5.9527e-03  2.9406e-03  3.2373e+03  5.3332e-03  0:00:01  142
  1859  5.3499e-03  5.9851e-03  2.8853e-03  3.3042e+03  5.3457e-03  0:00:01  141

  iter  continuity  x-velocity  y-velocity  z-velocity      energy     time/iter
  1860  5.3447e-03  6.0207e-03  2.8324e-03  3.3744e+03  5.3402e-03  0:00:01  140
  1861  5.3488e-03  6.0041e-03  2.7697e-03  3.4233e+03  5.3442e-03  0:00:01  139
  1862  5.2899e-03  5.9633e-03  2.7174e-03  3.4590e+03  5.2852e-03  0:00:01  138
  1863  5.2567e-03  5.9591e-03  2.6797e-03  3.5100e+03  5.2518e-03  0:00:00  137
  1864  5.2290e-03  5.9645e-03  2.6523e-03  3.5503e+03  5.2238e-03  0:00:00  136
  1865  5.2630e-03  5.9428e-03  2.6289e-03  3.5715e+03  5.2575e-03  0:00:27  135
  1866  5.2232e-03  5.9250e-03  2.6151e-03  3.5877e+03  5.2174e-03  0:00:22  134
  1867  5.1210e-03  5.9045e-03  2.6179e-03  3.6047e+03  5.1148e-03  0:00:17  133
  1868  5.0783e-03  5.8937e-03  2.6383e-03  3.5988e+03  5.0717e-03  0:00:14  132
  1869  5.1183e-03  5.8923e-03  2.6463e-03  3.6029e+03  5.1111e-03  0:00:11  131
  1870  5.1618e-03  5.8961e-03  2.6608e-03  3.5643e+03  5.1541e-03  0:00:09  130

  iter  continuity  x-velocity  y-velocity  z-velocity      energy     time/iter
  1871  5.1137e-03  5.8832e-03  2.6869e-03  3.5091e+03  5.1054e-03  0:00:07  129
  1872  4.9830e-03  5.8670e-03  2.7196e-03  3.4475e+03  4.9740e-03  0:00:05  128
  1873  4.9041e-03  5.8697e-03  2.7631e-03  3.3931e+03  4.8943e-03  0:00:04  127
  1874  4.8913e-03  5.9000e-03  2.8206e-03  3.3568e+03  4.8804e-03  0:00:03  126
  1875  4.9015e-03  5.9414e-03  2.8946e-03  3.3083e+03  4.8895e-03  0:00:03  125
  1876  4.8608e-03  5.9677e-03  2.9888e-03  3.2788e+03  4.8475e-03  0:00:02  124
  1877  4.8076e-03  5.9870e-03  3.0947e-03  3.2600e+03  4.7929e-03  0:00:02  123
  1878  4.8042e-03  6.0442e-03  3.2106e-03  3.2596e+03  4.7880e-03  0:00:01  122
  1879  4.7957e-03  6.0883e-03  3.3291e-03  3.2794e+03  4.7780e-03  0:00:01  121
  1880  4.7460e-03  6.1097e-03  3.4498e-03  3.3060e+03  4.7266e-03  0:00:01  120
  1881  4.7082e-03  6.1483e-03  3.5749e-03  3.3422e+03  4.6870e-03  0:00:01  119

  iter  continuity  x-velocity  y-velocity  z-velocity      energy     time/iter
  1882  4.6382e-03  6.2189e-03  3.7265e-03  3.4083e+03  4.6151e-03  0:00:01  118
  1883  4.5179e-03  6.2644e-03  3.8969e-03  3.4571e+03  4.4924e-03  0:00:24  117
  1884  4.4878e-03  6.2805e-03  4.0745e-03  3.5094e+03  4.4602e-03  0:00:19  116
  1885  4.4860e-03  6.3262e-03  4.2711e-03  3.5740e+03  4.4564e-03  0:00:15  115
  1886  4.4803e-03  6.4158e-03  4.4843e-03  3.6170e+03  4.4486e-03  0:00:12  114
  1887  4.4348e-03  6.5332e-03  4.7108e-03  3.6858e+03  4.4009e-03  0:00:09  113
  1888  4.3838e-03  6.6823e-03  4.9361e-03  3.7649e+03  4.3475e-03  0:00:07  112
  1889  4.4106e-03  6.8344e-03  5.1494e-03  3.8067e+03  4.3724e-03  0:00:06  111
  1890  4.4864e-03  6.9791e-03  5.3586e-03  3.8409e+03  4.4466e-03  0:00:05  110
  1891  4.5566e-03  7.1226e-03  5.5688e-03  3.8848e+03  4.5151e-03  0:00:04  109
  1892  4.5583e-03  7.2659e-03  5.7807e-03  3.9043e+03  4.5148e-03  0:00:03  108

  iter  continuity  x-velocity  y-velocity  z-velocity      energy     time/iter
  1893  4.5370e-03  7.3352e-03  5.9888e-03  3.9003e+03  4.4913e-03  0:00:02  107
  1894  4.5250e-03  7.4281e-03  6.1990e-03  3.8871e+03  4.4771e-03  0:00:02  106
  1895  4.4692e-03  7.4936e-03  6.4118e-03  3.8864e+03  4.4189e-03  0:00:01  105
  1896  4.3517e-03  7.5521e-03  6.6214e-03  3.8699e+03  4.2986e-03  0:00:01  104
  1897  4.1790e-03  7.6422e-03  6.8295e-03  3.8584e+03  4.1224e-03  0:00:01  103
  1898  4.0492e-03  7.7546e-03  7.0332e-03  3.8509e+03  3.9894e-03  0:00:01  102
  1899  3.9218e-03  7.8205e-03  7.2298e-03  3.8212e+03  3.8586e-03  0:00:01  101
  1900  3.7885e-03  7.8239e-03  7.4145e-03  3.7693e+03  3.7216e-03  0:00:00  100
  1901  3.6455e-03  7.8371e-03  7.5793e-03  3.7081e+03  3.5747e-03  0:00:00   99
  1902  3.5177e-03  7.8211e-03  7.7386e-03  3.6600e+03  3.4431e-03  0:00:00   98
  1903  3.4357e-03  7.7669e-03  7.8917e-03  3.6153e+03  3.3580e-03  0:00:00   97

  iter  continuity  x-velocity  y-velocity  z-velocity      energy     time/iter
  1904  3.3671e-03  7.7051e-03  8.0418e-03  3.5641e+03  3.2866e-03  0:00:19   96
  1905  3.2407e-03  7.6598e-03  8.1787e-03  3.4951e+03  3.1562e-03  0:00:15   95
  1906  3.1220e-03  7.6306e-03  8.2994e-03  3.4182e+03  3.0334e-03  0:00:12   94
  1907  3.0588e-03  7.6071e-03  8.4192e-03  3.3604e+03  2.9674e-03  0:00:10   93
  1908  3.0424e-03  7.5889e-03  8.5417e-03  3.3279e+03  2.9494e-03  0:00:08   92
  1909  3.0284e-03  7.5836e-03  8.6675e-03  3.2763e+03  2.9339e-03  0:00:06   91
  1910  3.0163e-03  7.5947e-03  8.7876e-03  3.2190e+03  2.9203e-03  0:00:05   90
  1911  3.0110e-03  7.6136e-03  8.9001e-03  3.1627e+03  2.9138e-03  0:00:04   89
  1912  2.9985e-03  7.5964e-03  8.9984e-03  3.1026e+03  2.8998e-03  0:00:03   88
  1913  3.0354e-03  7.6032e-03  9.0802e-03  3.0542e+03  2.9367e-03  0:00:02   87
  1914  3.0574e-03  7.6108e-03  9.1477e-03  3.0438e+03  2.9583e-03  0:00:02   86

  iter  continuity  x-velocity  y-velocity  z-velocity      energy     time/iter
  1915  3.1071e-03  7.6213e-03  9.2103e-03  3.0333e+03  3.0083e-03  0:00:01   85
  1916  3.2053e-03  7.6239e-03  9.2725e-03  3.0212e+03  3.1083e-03  0:00:01   84
  1917  3.2926e-03  7.6207e-03  9.3321e-03  3.0140e+03  3.1968e-03  0:00:01   83
  1918  3.3268e-03  7.6320e-03  9.3901e-03  3.0105e+03  3.2308e-03  0:00:01   82
  1919  3.3959e-03  7.6217e-03  9.4415e-03  3.0154e+03  3.3005e-03  0:00:01   81
  1920  3.5171e-03  7.6048e-03  9.4869e-03  3.0435e+03  3.4237e-03  0:00:00   80
  1921  3.5908e-03  7.6091e-03  9.5287e-03  3.0575e+03  3.4982e-03  0:00:00   79
  1922  3.6338e-03  7.6430e-03  9.5673e-03  3.0953e+03  3.5409e-03  0:00:00   78
  1923  3.7072e-03  7.6867e-03  9.5974e-03  3.1642e+03  3.6148e-03  0:00:00   77
  1924  3.8154e-03  7.7204e-03  9.6204e-03  3.2308e+03  3.7241e-03  0:00:15   76
  1925  3.8917e-03  7.7511e-03  9.6399e-03  3.2681e+03  3.8008e-03  0:00:12   75

  iter  continuity  x-velocity  y-velocity  z-velocity      energy     time/iter
  1926  3.9765e-03  7.7880e-03  9.6584e-03  3.3156e+03  3.8859e-03  0:00:10   74
  1927  3.9995e-03  7.8242e-03  9.6742e-03  3.3283e+03  3.9080e-03  0:00:08   73
  1928  3.9770e-03  7.8459e-03  9.6886e-03  3.3343e+03  3.8835e-03  0:00:06   72
  1929  3.9977e-03  7.8704e-03  9.7023e-03  3.3497e+03  3.9031e-03  0:00:05   71
  1930  4.0652e-03  7.8826e-03  9.7154e-03  3.3589e+03  3.9707e-03  0:00:04   70
  1931  4.0939e-03  7.8887e-03  9.7300e-03  3.3621e+03  3.9986e-03  0:00:03   69
  1932  4.1127e-03  7.9043e-03  9.7466e-03  3.3542e+03  4.0166e-03  0:00:02   68
  1933  4.2272e-03  7.9165e-03  9.7652e-03  3.3968e+03  4.1325e-03  0:00:02   67
  1934  4.3618e-03  7.9368e-03  9.7905e-03  3.4794e+03  4.2688e-03  0:00:01   66
  1935  4.4605e-03  7.9549e-03  9.8257e-03  3.5184e+03  4.3686e-03  0:00:01   65
  1936  4.4124e-03  7.9698e-03  9.8696e-03  3.5602e+03  4.3189e-03  0:00:01   64

  iter  continuity  x-velocity  y-velocity  z-velocity      energy     time/iter
  1937  4.4245e-03  7.9902e-03  9.9185e-03  3.6317e+03  4.3306e-03  0:00:13   63
  1938  4.5720e-03  8.0137e-03  9.9715e-03  3.7559e+03  4.4805e-03  0:00:10   62
  1939  4.6783e-03  8.0469e-03  1.0035e-02  3.8586e+03  4.5884e-03  0:00:08   61
  1940  4.7015e-03  8.0855e-03  1.0108e-02  3.9468e+03  4.6118e-03  0:00:06   60
  1941  4.7452e-03  8.1118e-03  1.0184e-02  4.0074e+03  4.6561e-03  0:00:05   59
  1942  4.8751e-03  8.1365e-03  1.0265e-02  4.0639e+03  4.7882e-03  0:00:04   58
  1943  4.9201e-03  8.1720e-03  1.0353e-02  4.1040e+03  4.8341e-03  0:00:03   57
  1944  4.9518e-03  8.2309e-03  1.0449e-02  4.1198e+03  4.8664e-03  0:00:02   56
  1945  4.9474e-03  8.2906e-03  1.0548e-02  4.0756e+03  4.8621e-03  0:00:02   55
  1946  4.9035e-03  8.3460e-03  1.0650e-02  4.0396e+03  4.8180e-03  0:00:02   54
  1947  4.8755e-03  8.4083e-03  1.0752e-02  4.0431e+03  4.7900e-03  0:00:01   53

  iter  continuity  x-velocity  y-velocity  z-velocity      energy     time/iter
  1948  4.8590e-03  8.4705e-03  1.0856e-02  4.0135e+03  4.7737e-03  0:00:11   52
  1949  4.8024e-03  8.5353e-03  1.0958e-02  3.9848e+03  4.7169e-03  0:00:09   51
  1950  4.7073e-03  8.5906e-03  1.1056e-02  4.0027e+03  4.6209e-03  0:00:07   50
  1951  4.6914e-03  8.6459e-03  1.1146e-02  4.0336e+03  4.6055e-03  0:00:05   49
  1952  4.7233e-03  8.7034e-03  1.1231e-02  4.0947e+03  4.6388e-03  0:00:04   48
  1953  4.6664e-03  8.7783e-03  1.1314e-02  4.1475e+03  4.5818e-03  0:00:03   47
  1954  4.7189e-03  8.8471e-03  1.1390e-02  4.2389e+03  4.6362e-03  0:00:03   46
  1955  4.9320e-03  8.9197e-03  1.1460e-02  4.3764e+03  4.8534e-03  0:00:02   45
  1956  5.0797e-03  9.0206e-03  1.1525e-02  4.4530e+03  5.0041e-03  0:00:02   44
  1957  5.2829e-03  9.1380e-03  1.1585e-02  4.4880e+03  5.2108e-03  0:00:01   43
  1958  5.5547e-03  9.2713e-03  1.1634e-02  4.5337e+03  5.4865e-03  0:00:01   42

  iter  continuity  x-velocity  y-velocity  z-velocity      energy     time/iter
  1959  5.8800e-03  9.4349e-03  1.1678e-02  4.6029e+03  5.8158e-03  0:00:01   41
  1960  6.2193e-03  9.6359e-03  1.1710e-02  4.6660e+03  6.1589e-03  0:00:01   40
  1961  6.5138e-03  9.8679e-03  1.1728e-02  4.7566e+03  6.4564e-03  0:00:08   39
  1962  6.8350e-03  1.0088e-02  1.1735e-02  4.9025e+03  6.7806e-03  0:00:06   38
  1963  7.1762e-03  1.0307e-02  1.1728e-02  5.1540e+03  7.1245e-03  0:00:05   37
  1964  7.3796e-03  1.0505e-02  1.1702e-02  5.4098e+03  7.3296e-03  0:00:04   36
  1965  7.3933e-03  1.0661e-02  1.1660e-02  5.7170e+03  7.3441e-03  0:00:03   35
  1966  7.3415e-03  1.0767e-02  1.1602e-02  6.0791e+03  7.2926e-03  0:00:02   34
  1967  7.2665e-03  1.0813e-02  1.1524e-02  6.4594e+03  7.2179e-03  0:00:02   33
  1968  7.1257e-03  1.0836e-02  1.1435e-02  6.7978e+03  7.0772e-03  0:00:01   32
  1969  7.1037e-03  1.0845e-02  1.1336e-02  7.1190e+03  7.0561e-03  0:00:01   31

  iter  continuity  x-velocity  y-velocity  z-velocity      energy     time/iter
  1970  7.2247e-03  1.0847e-02  1.1221e-02  7.3775e+03  7.1788e-03  0:00:07   30
  1971  7.3346e-03  1.0855e-02  1.1101e-02  7.5504e+03  7.2904e-03  0:00:05   29
  1972  7.4320e-03  1.0893e-02  1.0987e-02  7.6279e+03  7.3893e-03  0:00:04   28
  1973  7.5032e-03  1.0967e-02  1.0872e-02  7.5847e+03  7.4618e-03  0:00:03   27
  1974  7.5479e-03  1.1031e-02  1.0752e-02  7.4863e+03  7.5078e-03  0:00:02   26
  1975  7.4937e-03  1.1065e-02  1.0630e-02  7.3581e+03  7.4543e-03  0:00:02   25
  1976  7.4081e-03  1.1112e-02  1.0502e-02  7.1668e+03  7.3693e-03  0:00:01   24
  1977  7.3019e-03  1.1094e-02  1.0375e-02  7.0283e+03  7.2636e-03  0:00:01   23
  1978  7.0959e-03  1.1110e-02  1.0256e-02  6.8991e+03  7.0574e-03  0:00:01   22
  1979  6.7977e-03  1.1156e-02  1.0151e-02  6.8124e+03  6.7586e-03  0:00:01   21
  1980  6.4833e-03  1.1184e-02  1.0065e-02  6.7838e+03  6.4434e-03  0:00:00   20

  iter  continuity  x-velocity  y-velocity  z-velocity      energy     time/iter
  1981  6.1972e-03  1.1236e-02  9.9858e-03  6.7714e+03  6.1566e-03  0:00:00   19
  1982  5.9523e-03  1.1283e-02  9.8867e-03  6.7637e+03  5.9114e-03  0:00:00   18
  1983  5.7513e-03  1.1289e-02  9.7577e-03  6.7111e+03  5.7106e-03  0:00:04   17
  1984  5.6567e-03  1.1224e-02  9.5870e-03  6.5109e+03  5.6173e-03  0:00:03   16
  1985  5.6745e-03  1.1055e-02  9.3933e-03  6.1964e+03  5.6371e-03  0:00:02   15
  1986  5.7634e-03  1.0833e-02  9.2038e-03  5.7746e+03  5.7288e-03  0:00:02   14
  1987  5.9183e-03  1.0586e-02  9.0491e-03  5.2998e+03  5.8865e-03  0:00:01   13
  1988  6.1794e-03  1.0385e-02  8.9229e-03  4.8493e+03  6.1507e-03  0:00:01   12
  1989  6.4487e-03  1.0277e-02  8.8258e-03  4.4665e+03  6.4227e-03  0:00:01   11
  1990  6.6849e-03  1.0267e-02  8.7550e-03  4.1710e+03  6.6610e-03  0:00:00   10
  1991  6.9055e-03  1.0314e-02  8.6894e-03  3.9367e+03  6.8836e-03  0:00:00    9

  iter  continuity  x-velocity  y-velocity  z-velocity      energy     time/iter
  1992  6.9423e-03  1.0340e-02  8.6204e-03  3.7636e+03  6.9219e-03  0:00:00    8
  1993  6.8262e-03  1.0364e-02  8.5674e-03  3.6583e+03  6.8073e-03  0:00:00    7
  1994  6.5724e-03  1.0357e-02  8.4849e-03  3.6798e+03  6.5548e-03  0:00:00    6
  1995  6.2275e-03  1.0321e-02  8.4045e-03  3.8087e+03  6.2113e-03  0:00:01    5
  1996  5.9786e-03  1.0298e-02  8.3220e-03  4.0046e+03  5.9643e-03  0:00:01    4
  1997  5.8962e-03  1.0297e-02  8.2292e-03  4.2593e+03  5.8841e-03  0:00:00    3
  1998  6.0511e-03  1.0308e-02  8.1277e-03  4.5272e+03  6.0416e-03  0:00:00    2
  1999  6.4231e-03  1.0328e-02  8.0184e-03  4.7662e+03  6.4160e-03  0:00:00    1
  2000  6.8063e-03  1.0368e-02  7.9137e-03  4.9358e+03  6.8012e-03  0:00:00    0

> 
adjoint/                parallel/               server/
define/                 parametric-study/       solve/
display/                plot/                   surface/
exit                    preferences/            turbo-workflow/
file/                   print-license-usage     views/
mesh/                   report/

> /file/write-case-data project1
Fast-loading "C:\PROGRA~1\ANSYSI~1\v231\fluent\fluent23.1.0\\addons\afd\lib\hdfio.bin"
Done.

Writing to Engs-30669:"C:\Users\kebl7595\Desktop\CFD\Runs\Actual Data\27 degree\project1.cas.h5" in NODE0 mode and compression level 1 ...
       12996 cells,     1 zone  ...
       43722 faces,     8 zones ...
       17864 nodes,     1 zone  ...
  Done.
Done.

Writing to Engs-30669:"C:\Users\kebl7595\Desktop\CFD\Runs\Actual Data\27 degree\project1.dat.h5" in NODE0 mode and compression level 1 ...
  Writing results.
Done.

> /file/export/ascii "./surface.dat" wing te () no pressure mach-number quit no

Writing "./surface.dat"...

Writing information to ascii file ...
Done.


> /plot/plot y "data.dat" no n n pressure-coefficient no n x-coordinate wing ()

> /report/forces/wall-forces y -0.45399 0.89101 0 y "Force"

> /exit

Posting ANSYS Product Improvement Program performance data 
Done.
Auto-Transcript Stop Time:  15:15:59, 20 May 2024 GMT Daylight Time 
Total Transcript Time: 2 Minute 18 Second.
