Auto-Transcript Start Time:  10:43:45, 21 May 2024 GMT Daylight Time 
Current Directory: "C:\Users\kebl7595\Desktop\CFD\Runs\Viscous\15 degrees"

              Welcome to ANSYS Fluent 2023 R1

              Copyright 1987-2023 ANSYS, Inc. All Rights Reserved.
              Unauthorized use, distribution or duplication is prohibited.
              This product is subject to U.S. laws governing export and re-export.
              For full Legal Notice, see documentation.

Build Time: Nov 28 2022 09:52:02 EST  Build Id: 10208  
 
Connected License Server List:	1055@ansyslic.eng.ox.ac.uk

*********************************************
Info: Your license enables 4-way parallel execution.
For faster simulations, please start the application with the appropriate parallel options.
*********************************************


     --------------------------------------------------------------
     This is an academic version of ANSYS FLUENT. Usage of this product
     license is limited to the terms and conditions specified in your ANSYS
     license form, additional terms section.
     --------------------------------------------------------------
Host spawning Node 0 on machine "Engs-30669" (win64).

------------------------------------------------------------------------------------
ID    Hostname    Core  O.S.         PID    Vendor                                 
------------------------------------------------------------------------------------
n0    Engs-30669  1/32  Windows-x64  50992  13th Gen Intel(R) Core(TM) i9-13900    
host  Engs-30669        Windows-x64  39896  13th Gen Intel(R) Core(TM) i9-13900    

MPI Option Selected: intel
------------------------------------------------------------------------------------

Cleanup script file is C:\\Users\\kebl7595\\Desktop\\CFD\\Runs\\Viscous\\15 degrees\\cleanup-fluent-Engs-30669-39896.bat
QA Service Message :
QA Services Agreement Enabled. This application is included in the scope of an ANSYS QA Services Agreement.
Posting ANSYS Product Improvement Program startup data
Done.

Reading journal file C:/Users/kebl7595/Desktop/CFD/Runs/Viscous/15 degrees/project1.jou...

> /file/set-batch-options no no no 

> 
define/                 parametric-study/       solve/
display/                plot/                   surface/
exit                    preferences/            switch-to-meshing-mode
file/                   print-license-usage     turbo-workflow/
mesh/                   report/                 views/
parallel/               server/

> /file/import/cgns/mesh  "./project1.cgns"
Engs-30669 has other FLUENT parallel processes running.                       Process affinity not being set.

Importing "./project1.cgns"

Opening library "C:\\PROGRA~1\\ANSYSI~1\\v231\\fluent\\fluent23.1.0\\vki\\win64\\devtools4.4.6.dll"... done.

Read    17864 nodes
   12996 hexahedral cells, zone  1
    9462 quadrilateral wall faces, zone  2.
   33972 quadrilateral interior faces, zone  3.
     282 quadrilateral interface faces, zone  4.
       6 quadrilateral wall faces, zone  5.

Building...
     mesh
     materials,
     interface,
     domains,
     zones,
	default_exterior-1
	interface-default_subface
	default_interior-1
	default_subface
	default
     parallel,
The automatic selection for flux type has changed to Rhie-Chow: momentum based.

Done.


> 
adjoint/                parallel/               server/
define/                 parametric-study/       solve/
display/                plot/                   surface/
exit                    preferences/            turbo-workflow/
file/                   print-license-usage     views/
mesh/                   report/

> /define/models/solver/density-based-implicit yes

> 
adjoint/                parallel/               server/
define/                 parametric-study/       solve/
display/                plot/                   surface/
exit                    preferences/            turbo-workflow/
file/                   print-license-usage     views/
mesh/                   report/

> /define/models/energy? yes yes invalid command [yes]
yes

> /define/models/viscous/kw-standard? yes

> 
adjoint/                parallel/               server/
define/                 parametric-study/       solve/
display/                plot/                   surface/
exit                    preferences/            turbo-workflow/
file/                   print-license-usage     views/
mesh/                   report/

> /define/materials/change-create air air air is a fluid
yes 
Density
ideal-gas no data required.

no no no no no no

> 
adjoint/                parallel/               server/
define/                 parametric-study/       solve/
display/                plot/                   surface/
exit                    preferences/            turbo-workflow/
file/                   print-license-usage     views/
mesh/                   report/

> /mesh/modify-zones/sep-face-zone-angle 2 90 yes

 4332 faces in contiguous region 0
 228 faces in contiguous region 1
 342 faces in contiguous region 2
 4332 faces in contiguous region 3
 228 faces in contiguous region 4
 Separates zone 2 into 5 zone(s).
Updating new zone information...
   created new zone default_subface:010 from default_subface
   created new zone default_subface:009 from default_subface
   created new zone default_subface:008 from default_subface
   created new zone default_subface:007 from default_subface
done.

> 
adjoint/                parallel/               server/
define/                 parametric-study/       solve/
display/                plot/                   surface/
exit                    preferences/            turbo-workflow/
file/                   print-license-usage     views/
mesh/                   report/

> /define/boundary-conditions/zone-name  5   te

> /define/boundary-conditions/zone-name  7 wing

> /define/boundary-conditions/zone-name  2 sym1

> /define/boundary-conditions/zone-name  9 sym2

> 
adjoint/                parallel/               server/
define/                 parametric-study/       solve/
display/                plot/                   surface/
exit                    preferences/            turbo-workflow/
file/                   print-license-usage     views/
mesh/                   report/

> /define/boundary-conditions/zone-name  8 far1

> /define/boundary-conditions/zone-name 10 far2

> 
adjoint/                parallel/               server/
define/                 parametric-study/       solve/
display/                plot/                   surface/
exit                    preferences/            turbo-workflow/
file/                   print-license-usage     views/
mesh/                   report/

> /define/boundary-conditions/zone-type  8 pressure-far-field

> /define/boundary-conditions/zone-type 10 pressure-far-field

> /define/boundary-conditions/zone-type  2 symmetry

> /define/boundary-conditions/zone-type  9 symmetry

> 
adjoint/                parallel/               server/
define/                 parametric-study/       solve/
display/                plot/                   surface/
exit                    preferences/            turbo-workflow/
file/                   print-license-usage     views/
mesh/                   report/

> /define/boundary-conditions/pressure-far-field (far2 far1)
far1 no 0 no 0.1 no 300 yes no 0.96593 no 0.25882 no 0. no yes 5 0.02

> /define/boundary-conditions/pressure-far-field (far2 far1)
far2 no 0 no 0.1 no 300 yes no 0.96593 no 0.25882 no 0. no yes 5 0.02

> 
adjoint/                parallel/               server/
define/                 parametric-study/       solve/
display/                plot/                   surface/
exit                    preferences/            turbo-workflow/
file/                   print-license-usage     views/
mesh/                   report/

> /solve/initialize/compute-defaults/pressure-far-field (far2 far1)
far1

> /solve/initialize/initialize-flow

> 
adjoint/                parallel/               server/
define/                 parametric-study/       solve/
display/                plot/                   surface/
exit                    preferences/            turbo-workflow/
file/                   print-license-usage     views/
mesh/                   report/

> /solve/monitors/residual/convergence-criteria 1.e-9 1.e-9 1.e-9 1.e-9 1.e-9 1.e-9 1.e-9

> /solve/iterate 2000

  iter  continuity  x-velocity  y-velocity  z-velocity      energy           k       omega     time/iter
     1  1.0000e+00  1.0000e+00  1.0000e+00  1.0000e+00  1.0000e+00  1.7457e-01  1.2981e-01  0:00:00 1999
     2  5.0734e-01  4.2548e-01  4.5012e-01  1.0000e+00  5.0788e-01  1.3208e-01  1.0238e-01  0:00:00 1998
     3  2.8098e-01  2.0769e-01  2.2578e-01  9.7441e-01  2.8118e-01  1.0343e-01  8.3555e-02  0:00:00 1997
     4  1.7787e-01  1.3885e-01  1.3815e-01  7.0258e-01  1.7792e-01  8.4119e-02  6.9688e-02  0:00:00 1996
     5  1.2825e-01  1.0864e-01  9.4065e-02  6.0218e-01  1.2827e-01  7.1348e-02  5.9548e-02  0:33:15 1995
     6  1.0291e-01  8.0571e-02  6.6988e-02  6.9925e-01  1.0295e-01  6.1546e-02  5.2207e-02  0:26:35 1994
     7  8.7866e-02  6.1216e-02  4.9937e-02  7.2974e-01  8.7938e-02  5.3671e-02  4.6362e-02  0:21:16 1993
     8  7.6917e-02  4.8646e-02  3.9324e-02  6.8673e-01  7.7009e-02  4.7263e-02  4.1475e-02  0:17:00 1992
     9  6.8739e-02  4.0513e-02  3.2602e-02  6.6086e-01  6.8837e-02  4.1993e-02  3.7340e-02  0:13:36 1991
    10  6.2557e-02  3.5496e-02  2.8104e-02  6.2957e-01  6.2652e-02  3.7662e-02  3.3833e-02  0:10:52 1990
    11  5.8116e-02  3.2985e-02  2.4850e-02  5.9518e-01  5.8202e-02  3.4104e-02  3.0833e-02  0:08:41 1989

  iter  continuity  x-velocity  y-velocity  z-velocity      energy           k       omega     time/iter
    12  5.5180e-02  3.2025e-02  2.2419e-02  5.5706e-01  5.5254e-02  3.1137e-02  2.8281e-02  0:13:35 1988
    13  5.3559e-02  3.2109e-02  2.0610e-02  5.3517e-01  5.3620e-02  2.8619e-02  2.6093e-02  0:10:51 1987
    14  5.3066e-02  3.2809e-02  1.9335e-02  5.3233e-01  5.3115e-02  2.6466e-02  2.4180e-02  0:08:41 1986
    15  5.3477e-02  3.4026e-02  1.8537e-02  5.4963e-01  5.3514e-02  2.4614e-02  2.2493e-02  0:06:56 1985
    16  5.4576e-02  3.5618e-02  1.8090e-02  5.8465e-01  5.4602e-02  2.3011e-02  2.1008e-02  0:05:33 1984
    17  5.6161e-02  3.7467e-02  1.7954e-02  6.3267e-01  5.6177e-02  2.1592e-02  1.9696e-02  0:04:26 1983
    18  5.8054e-02  3.9440e-02  1.8065e-02  6.9355e-01  5.8058e-02  2.0330e-02  1.8519e-02  0:10:09 1982
    19  6.0109e-02  4.1409e-02  1.8330e-02  7.6533e-01  6.0100e-02  1.9209e-02  1.7455e-02  0:08:07 1981
    20  6.2186e-02  4.3263e-02  1.8794e-02  8.4575e-01  6.2164e-02  1.8210e-02  1.6503e-02  0:06:30 1980
    21  6.4158e-02  4.4929e-02  1.9321e-02  9.3332e-01  6.4120e-02  1.7300e-02  1.5639e-02  0:05:11 1979
    22  6.5929e-02  4.6355e-02  2.0009e-02  1.0205e+00  6.5874e-02  1.6473e-02  1.4852e-02  0:04:09 1978

  iter  continuity  x-velocity  y-velocity  z-velocity      energy           k       omega     time/iter
    23  6.7384e-02  4.7464e-02  2.0812e-02  1.1013e+00  6.7310e-02  1.5712e-02  1.4135e-02  0:03:19 1977
    24  6.8406e-02  4.7977e-02  2.1639e-02  1.1696e+00  6.8312e-02  1.5013e-02  1.3485e-02  0:02:39 1976
    25  6.8960e-02  4.8011e-02  2.2485e-02  1.2189e+00  6.8844e-02  1.4361e-02  1.2885e-02  0:08:42 1975
    26  6.9031e-02  4.7951e-02  2.3086e-02  1.2463e+00  6.8894e-02  1.3756e-02  1.2336e-02  0:06:58 1974
    27  6.8617e-02  4.7720e-02  2.3446e-02  1.2464e+00  6.8457e-02  1.3193e-02  1.1821e-02  0:05:34 1973
    28  6.7721e-02  4.7193e-02  2.3523e-02  1.2231e+00  6.7539e-02  1.2671e-02  1.1336e-02  0:04:27 1972
    29  6.6364e-02  4.6349e-02  2.3562e-02  1.1765e+00  6.6162e-02  1.2183e-02  1.0882e-02  0:03:34 1971
    30  6.4602e-02  4.5398e-02  2.3500e-02  1.1044e+00  6.4379e-02  1.1730e-02  1.0447e-02  0:02:51 1970
    31  6.2472e-02  4.4539e-02  2.3232e-02  1.0233e+00  6.2231e-02  1.1307e-02  1.0037e-02  0:02:17 1969
    32  5.9993e-02  4.3679e-02  2.2885e-02  9.3916e-01  5.9736e-02  1.0908e-02  9.6457e-03  0:01:49 1968
    33  5.7204e-02  4.2742e-02  2.2601e-02  8.6474e-01  5.6932e-02  1.0533e-02  9.2814e-03  0:01:27 1967

  iter  continuity  x-velocity  y-velocity  z-velocity      energy           k       omega     time/iter
    34  5.4199e-02  4.1858e-02  2.2442e-02  8.1359e-01  5.3914e-02  1.0182e-02  8.9294e-03  0:07:43 1966
    35  5.1019e-02  4.1077e-02  2.2493e-02  7.9930e-01  5.0723e-02  9.8546e-03  8.5877e-03  0:06:10 1965
    36  4.7716e-02  4.0425e-02  2.2546e-02  8.2027e-01  4.7411e-02  9.5514e-03  8.2580e-03  0:04:56 1964
    37  4.4327e-02  3.9699e-02  2.3136e-02  8.7186e-01  4.4016e-02  9.2716e-03  7.9409e-03  0:03:57 1963
    38  4.0926e-02  3.9377e-02  2.3902e-02  9.4293e-01  4.0610e-02  9.0094e-03  7.6427e-03  0:03:09 1962
    39  3.7561e-02  3.9111e-02  2.5027e-02  1.0240e+00  3.7243e-02  8.7534e-03  7.3654e-03  0:02:31 1961
    40  3.4269e-02  3.8819e-02  2.6460e-02  1.1039e+00  3.3950e-02  8.5214e-03  7.1046e-03  0:02:01 1960
    41  3.1074e-02  3.8643e-02  2.8071e-02  1.1729e+00  3.0755e-02  8.3078e-03  6.8641e-03  0:01:37 1959
    42  2.7993e-02  3.8577e-02  2.9777e-02  1.2315e+00  2.7677e-02  8.0999e-03  6.6401e-03  0:07:49 1958
    43  2.5066e-02  3.8639e-02  3.1515e-02  1.2763e+00  2.4753e-02  7.9005e-03  6.4220e-03  0:06:15 1957
    44  2.2314e-02  3.8759e-02  3.3255e-02  1.2997e+00  2.2005e-02  7.7225e-03  6.1993e-03  0:05:00 1956

  iter  continuity  x-velocity  y-velocity  z-velocity      energy           k       omega     time/iter
    45  1.9765e-02  3.8997e-02  3.4922e-02  1.2973e+00  1.9463e-02  7.5590e-03  5.9870e-03  0:04:00 1955
    46  1.7452e-02  3.9321e-02  3.6470e-02  1.2728e+00  1.7158e-02  7.4062e-03  5.7856e-03  0:03:12 1954
    47  1.5399e-02  3.9777e-02  3.7862e-02  1.2313e+00  1.5117e-02  7.2603e-03  5.5762e-03  0:02:33 1953
    48  1.3643e-02  4.0318e-02  3.9098e-02  1.1767e+00  1.3378e-02  7.1249e-03  5.3738e-03  0:02:03 1952
    49  1.2227e-02  4.0927e-02  4.0169e-02  1.1142e+00  1.1983e-02  6.9897e-03  5.1944e-03  0:01:38 1951
    50  1.1171e-02  4.1626e-02  4.1023e-02  1.0466e+00  1.0956e-02  6.8688e-03  5.0184e-03  0:01:18 1950
    51  1.0495e-02  4.2386e-02  4.1682e-02  9.7749e-01  1.0316e-02  6.7725e-03  4.8451e-03  0:07:32 1949
    52  1.0150e-02  4.3061e-02  4.2164e-02  9.1092e-01  1.0009e-02  6.6960e-03  4.6803e-03  0:06:02 1948
    53  1.0096e-02  4.3763e-02  4.2436e-02  8.4863e-01  9.9937e-03  6.6315e-03  4.5167e-03  0:04:49 1947
    54  1.0285e-02  4.4375e-02  4.2590e-02  7.9603e-01  1.0218e-02  6.5909e-03  4.3677e-03  0:03:51 1946
    55  1.0648e-02  4.4996e-02  4.2578e-02  7.6157e-01  1.0611e-02  6.5693e-03  4.2428e-03  0:03:05 1945

  iter  continuity  x-velocity  y-velocity  z-velocity      energy           k       omega     time/iter
    56  1.1117e-02  4.5625e-02  4.2392e-02  7.4132e-01  1.1103e-02  6.5831e-03  4.1239e-03  0:02:28 1944
    57  1.1636e-02  4.6231e-02  4.2037e-02  7.3759e-01  1.1640e-02  6.6236e-03  4.0079e-03  0:01:58 1943
    58  1.2163e-02  4.6799e-02  4.1532e-02  7.4963e-01  1.2180e-02  6.6697e-03  3.9043e-03  0:01:35 1942
    59  1.2665e-02  4.7300e-02  4.0883e-02  7.7314e-01  1.2691e-02  6.7300e-03  3.8102e-03  0:07:44 1941
    60  1.3118e-02  4.7662e-02  4.0094e-02  8.0241e-01  1.3150e-02  6.8034e-03  3.7244e-03  0:06:11 1940
    61  1.3503e-02  4.7802e-02  3.9158e-02  8.3371e-01  1.3539e-02  6.8909e-03  3.6370e-03  0:04:57 1939
    62  1.3823e-02  4.7831e-02  3.8113e-02  8.6661e-01  1.3861e-02  6.9750e-03  3.5592e-03  0:03:57 1938
    63  1.4071e-02  4.7754e-02  3.6929e-02  9.0062e-01  1.4109e-02  7.0599e-03  3.4949e-03  0:03:10 1937
    64  1.4234e-02  4.7549e-02  3.5618e-02  9.3026e-01  1.4270e-02  7.1467e-03  3.4331e-03  0:02:32 1936
    65  1.4310e-02  4.7209e-02  3.4208e-02  9.5057e-01  1.4344e-02  7.2238e-03  3.3839e-03  0:02:01 1935
    66  1.4293e-02  4.6695e-02  3.2721e-02  9.6450e-01  1.4324e-02  7.2873e-03  3.3325e-03  0:01:37 1934

  iter  continuity  x-velocity  y-velocity  z-velocity      energy           k       omega     time/iter
    67  1.4175e-02  4.5937e-02  3.1189e-02  9.7086e-01  1.4202e-02  7.3453e-03  3.2809e-03  0:01:17 1933
    68  1.3947e-02  4.4872e-02  2.9626e-02  9.6868e-01  1.3970e-02  7.4104e-03  3.2349e-03  0:07:28 1932
    69  1.3631e-02  4.3616e-02  2.8055e-02  9.5904e-01  1.3651e-02  7.4600e-03  3.1901e-03  0:05:59 1931
    70  1.3209e-02  4.2054e-02  2.6399e-02  9.4194e-01  1.3224e-02  7.5030e-03  3.1478e-03  0:04:47 1930
    71  1.2697e-02  4.0377e-02  2.4671e-02  9.1713e-01  1.2707e-02  7.5437e-03  3.1149e-03  0:03:49 1929
    72  1.2101e-02  3.8618e-02  2.2881e-02  8.8594e-01  1.2106e-02  7.5715e-03  3.0776e-03  0:03:03 1928
    73  1.1433e-02  3.6848e-02  2.1069e-02  8.5076e-01  1.1434e-02  7.5928e-03  3.0249e-03  0:02:27 1927
    74  1.0722e-02  3.5229e-02  1.9271e-02  8.1241e-01  1.0719e-02  7.7233e-03  3.0883e-03  0:01:57 1926
    75  9.9888e-03  3.3435e-02  1.7617e-02  7.7952e-01  9.9822e-03  7.6919e-03  3.0258e-03  0:01:34 1925
    76  9.2637e-03  3.1545e-02  1.6047e-02  7.5390e-01  9.2535e-03  7.6689e-03  2.9822e-03  0:01:15 1924
    77  8.5912e-03  2.9717e-02  1.4503e-02  7.3562e-01  8.5775e-03  7.6569e-03  2.9501e-03  0:07:24 1923

  iter  continuity  x-velocity  y-velocity  z-velocity      energy           k       omega     time/iter
    78  8.0563e-03  2.8028e-02  1.3156e-02  7.2337e-01  8.0392e-03  7.6457e-03  2.9130e-03  0:05:55 1922
    79  7.7637e-03  2.6718e-02  1.2040e-02  7.1892e-01  7.7432e-03  7.6489e-03  2.8977e-03  0:04:44 1921
    80  7.7797e-03  2.5644e-02  1.1140e-02  7.2090e-01  7.7557e-03  7.6433e-03  2.8976e-03  0:03:47 1920
    81  8.1115e-03  2.4611e-02  1.0514e-02  7.3062e-01  8.0839e-03  7.6301e-03  2.8895e-03  0:03:02 1919
    82  8.7523e-03  2.3962e-02  1.0050e-02  7.4959e-01  8.7208e-03  7.6084e-03  2.8734e-03  0:02:25 1918
    83  9.6393e-03  2.3702e-02  9.7176e-03  7.7344e-01  9.6037e-03  7.5771e-03  2.8514e-03  0:01:56 1917
    84  1.0705e-02  2.3775e-02  9.5482e-03  7.9820e-01  1.0665e-02  7.5535e-03  2.8323e-03  0:01:33 1916
    85  1.1883e-02  2.4109e-02  9.5304e-03  8.2164e-01  1.1837e-02  7.5500e-03  2.8179e-03  0:01:14 1915
    86  1.3115e-02  2.4633e-02  9.6199e-03  8.4370e-01  1.3063e-02  7.5661e-03  2.7967e-03  0:07:22 1914
    87  1.4360e-02  2.5262e-02  9.7841e-03  8.5903e-01  1.4301e-02  7.6381e-03  2.7535e-03  0:05:54 1913
    88  1.5585e-02  2.5894e-02  9.9719e-03  8.6941e-01  1.5518e-02  7.7338e-03  2.7069e-03  0:04:43 1912

  iter  continuity  x-velocity  y-velocity  z-velocity      energy           k       omega     time/iter
    89  1.6751e-02  2.6496e-02  1.0137e-02  8.7376e-01  1.6675e-02  7.8539e-03  2.6588e-03  0:03:46 1911
    90  1.7829e-02  2.7075e-02  1.0275e-02  8.7244e-01  1.7744e-02  7.9848e-03  2.6332e-03  0:03:01 1910
    91  1.8791e-02  2.7576e-02  1.0425e-02  8.6144e-01  1.8696e-02  8.1205e-03  2.6015e-03  0:02:25 1909
    92  1.9611e-02  2.7915e-02  1.0564e-02  8.4335e-01  1.9504e-02  8.2449e-03  2.5605e-03  0:01:56 1908
    93  2.0275e-02  2.8105e-02  1.0666e-02  8.1935e-01  2.0158e-02  8.3749e-03  2.5053e-03  0:01:32 1907
    94  2.0779e-02  2.8134e-02  1.0751e-02  7.8552e-01  2.0650e-02  8.4979e-03  2.4462e-03  0:01:14 1906
    95  2.1109e-02  2.8013e-02  1.0839e-02  7.4858e-01  2.0969e-02  8.6190e-03  2.3882e-03  0:07:20 1905
    96  2.1264e-02  2.7773e-02  1.0993e-02  7.0933e-01  2.1112e-02  8.7252e-03  2.3454e-03  0:05:52 1904
    97  2.1243e-02  2.7382e-02  1.1236e-02  6.6592e-01  2.1079e-02  8.8211e-03  2.3068e-03  0:04:41 1903
    98  2.1049e-02  2.6847e-02  1.1598e-02  6.2476e-01  2.0875e-02  8.8923e-03  2.2671e-03  0:03:45 1902
    99  2.0685e-02  2.6142e-02  1.2167e-02  5.8645e-01  2.0499e-02  8.9404e-03  2.2356e-03  0:03:00 1901

  iter  continuity  x-velocity  y-velocity  z-velocity      energy           k       omega     time/iter
   100  2.0172e-02  2.5347e-02  1.2702e-02  5.5515e-01  1.9976e-02  8.9738e-03  2.2037e-03  0:02:24 1900
   101  1.9541e-02  2.4518e-02  1.3462e-02  5.3215e-01  1.9335e-02  8.9983e-03  2.1725e-03  0:01:55 1899
   102  1.8804e-02  2.3667e-02  1.4567e-02  5.1739e-01  1.8589e-02  9.0907e-03  2.2271e-03  0:01:32 1898
   103  1.7962e-02  2.2842e-02  1.5722e-02  5.0858e-01  1.7739e-02  9.0109e-03  2.1585e-03  0:07:33 1897
   104  1.7032e-02  2.2065e-02  1.6818e-02  5.0280e-01  1.6802e-02  8.9200e-03  2.1019e-03  0:06:02 1896
   105  1.6040e-02  2.1337e-02  1.8067e-02  5.0184e-01  1.5804e-02  8.8466e-03  2.0557e-03  0:04:50 1895
   106  1.5006e-02  2.0712e-02  1.9393e-02  5.0646e-01  1.4765e-02  8.7631e-03  2.0107e-03  0:03:52 1894
   107  1.3947e-02  2.0253e-02  2.0740e-02  5.1274e-01  1.3702e-02  8.6720e-03  1.9653e-03  0:03:05 1893
   108  1.2871e-02  2.0060e-02  2.2052e-02  5.1897e-01  1.2625e-02  8.5707e-03  1.9340e-03  0:02:28 1892
   109  1.1767e-02  1.9611e-02  2.3144e-02  5.2548e-01  1.1520e-02  8.4576e-03  1.9086e-03  0:01:58 1891
   110  1.0689e-02  1.9959e-02  2.4196e-02  5.3225e-01  1.0444e-02  8.3247e-03  1.8741e-03  0:01:35 1890

  iter  continuity  x-velocity  y-velocity  z-velocity      energy           k       omega     time/iter
   111  9.6719e-03  2.0685e-02  2.5215e-02  5.3686e-01  9.4320e-03  8.1880e-03  1.8388e-03  0:01:16 1889
   112  8.7381e-03  2.1663e-02  2.6138e-02  5.3914e-01  8.5066e-03  8.0587e-03  1.8115e-03  0:07:18 1888
   113  7.9061e-03  2.2828e-02  2.6926e-02  5.3887e-01  7.6870e-03  7.9202e-03  1.7834e-03  0:05:50 1887
   114  7.2118e-03  2.4187e-02  2.7561e-02  5.3454e-01  7.0102e-03  7.7779e-03  1.7499e-03  0:04:40 1886
   115  6.6852e-03  2.5672e-02  2.8032e-02  5.2617e-01  6.5070e-03  7.6126e-03  1.7173e-03  0:03:44 1885
   116  6.3504e-03  2.7248e-02  2.8343e-02  5.1451e-01  6.2009e-03  7.4353e-03  1.6983e-03  0:02:59 1884
   117  6.2127e-03  2.8826e-02  2.8491e-02  5.0006e-01  6.0950e-03  7.2393e-03  1.6712e-03  0:02:23 1883
   118  6.2594e-03  3.0380e-02  2.8476e-02  4.8431e-01  6.1731e-03  7.0449e-03  1.6419e-03  0:01:54 1882
   119  6.4583e-03  3.1830e-02  2.8316e-02  4.6685e-01  6.4001e-03  6.8573e-03  1.6114e-03  0:01:32 1881
   120  6.7678e-03  3.3114e-02  2.8019e-02  4.4739e-01  6.7324e-03  6.6673e-03  1.5771e-03  0:01:13 1880
   121  7.1456e-03  3.4301e-02  2.7598e-02  4.2691e-01  7.1274e-03  6.4605e-03  1.5498e-03  0:07:14 1879

  iter  continuity  x-velocity  y-velocity  z-velocity      energy           k       omega     time/iter
   122  7.5596e-03  3.5359e-02  2.7060e-02  4.0555e-01  7.5537e-03  6.2403e-03  1.5100e-03  0:05:47 1878
   123  7.9814e-03  3.6271e-02  2.6417e-02  3.8390e-01  7.9834e-03  6.0090e-03  1.4829e-03  0:04:38 1877
   124  8.3915e-03  3.7037e-02  2.5705e-02  3.6331e-01  8.3980e-03  5.7620e-03  1.4619e-03  0:03:42 1876
   125  8.7746e-03  3.7627e-02  2.4919e-02  3.4619e-01  8.7829e-03  5.5301e-03  1.4373e-03  0:02:58 1875
   126  9.1167e-03  3.8031e-02  2.4050e-02  3.3276e-01  9.1247e-03  5.3336e-03  1.4239e-03  0:02:22 1874
   127  9.4113e-03  3.8255e-02  2.3117e-02  3.2237e-01  9.4174e-03  5.1358e-03  1.4139e-03  0:01:53 1873
   128  9.6541e-03  3.8299e-02  2.2145e-02  3.1559e-01  9.6571e-03  4.9410e-03  1.4077e-03  0:01:31 1872
   129  9.8426e-03  3.8141e-02  2.1146e-02  3.1198e-01  9.8415e-03  4.7381e-03  1.4005e-03  0:07:27 1871
   130  9.9774e-03  3.7835e-02  2.0128e-02  3.1091e-01  9.9713e-03  4.5627e-03  1.3933e-03  0:05:57 1870
   131  1.0050e-02  3.7318e-02  1.9093e-02  3.1364e-01  1.0039e-02  4.4077e-03  1.3950e-03  0:04:46 1869
   132  1.0066e-02  3.6683e-02  1.8065e-02  3.1907e-01  1.0048e-02  4.3150e-03  1.3993e-03  0:03:48 1868

  iter  continuity  x-velocity  y-velocity  z-velocity      energy           k       omega     time/iter
   133  1.0028e-02  3.6046e-02  1.7006e-02  3.2720e-01  1.0005e-02  4.2643e-03  1.4175e-03  0:03:03 1867
   134  9.9374e-03  3.5273e-02  1.6070e-02  3.3671e-01  9.9080e-03  4.2540e-03  1.4348e-03  0:02:26 1866
   135  9.7531e-03  3.4181e-02  1.5329e-02  3.4706e-01  9.7178e-03  4.2963e-03  1.4595e-03  0:01:57 1865
   136  9.5287e-03  3.3081e-02  1.4705e-02  3.5711e-01  9.4879e-03  4.3805e-03  1.4851e-03  0:01:33 1864
   137  9.2757e-03  3.1950e-02  1.4073e-02  3.6587e-01  9.2295e-03  4.4731e-03  1.5105e-03  0:01:15 1863
   138  8.9923e-03  3.0757e-02  1.3518e-02  3.7463e-01  8.9408e-03  4.5741e-03  1.5342e-03  0:07:12 1862
   139  8.6823e-03  2.9527e-02  1.3068e-02  3.7970e-01  8.6257e-03  4.6801e-03  1.5672e-03  0:05:45 1861
   140  8.3502e-03  2.8258e-02  1.2730e-02  3.8370e-01  8.2888e-03  4.7728e-03  1.5914e-03  0:04:36 1860
   141  8.0040e-03  2.6977e-02  1.2494e-02  3.8681e-01  7.9384e-03  4.8573e-03  1.6128e-03  0:03:41 1859
   142  7.6305e-03  2.6011e-02  1.2192e-02  3.8845e-01  7.5615e-03  4.9433e-03  1.6307e-03  0:02:57 1858
   143  7.2449e-03  2.5485e-02  1.1999e-02  3.8831e-01  7.1737e-03  5.0327e-03  1.6477e-03  0:02:21 1857

  iter  continuity  x-velocity  y-velocity  z-velocity      energy           k       omega     time/iter
   144  6.8838e-03  2.4529e-02  1.2138e-02  3.8644e-01  6.8107e-03  5.1337e-03  1.6566e-03  0:01:53 1856
   145  6.5314e-03  2.3500e-02  1.2276e-02  3.8300e-01  6.4563e-03  5.2263e-03  1.6680e-03  0:07:41 1855
   146  6.1888e-03  2.2479e-02  1.2390e-02  3.7793e-01  6.1118e-03  5.3114e-03  1.6641e-03  0:06:09 1854
   147  5.8575e-03  2.1493e-02  1.2469e-02  3.7183e-01  5.7787e-03  5.3828e-03  1.6570e-03  0:04:55 1853
   148  5.5269e-03  2.0525e-02  1.2527e-02  3.6569e-01  5.4468e-03  5.4721e-03  1.6489e-03  0:03:56 1852
   149  5.2095e-03  1.9653e-02  1.2556e-02  3.5691e-01  5.1298e-03  5.5663e-03  1.6368e-03  0:03:09 1851
   150  4.9163e-03  1.8931e-02  1.2556e-02  3.4595e-01  4.8368e-03  5.6565e-03  1.6193e-03  0:02:31 1850
   151  4.6370e-03  1.8280e-02  1.2523e-02  3.3440e-01  4.5580e-03  5.7311e-03  1.6018e-03  0:02:01 1849
   152  4.3671e-03  1.7876e-02  1.2457e-02  3.2275e-01  4.2892e-03  5.7968e-03  1.5827e-03  0:07:46 1848
   153  4.2099e-03  1.7784e-02  1.2527e-02  3.1147e-01  4.1351e-03  5.8533e-03  1.5648e-03  0:06:13 1847
   154  4.1251e-03  1.7866e-02  1.2556e-02  2.9935e-01  4.0539e-03  5.9181e-03  1.5455e-03  0:04:58 1846

  iter  continuity  x-velocity  y-velocity  z-velocity      energy           k       omega     time/iter
   155  4.0291e-03  1.7716e-02  1.2427e-02  2.8637e-01  3.9606e-03  5.9767e-03  1.5234e-03  0:03:58 1845
   156  3.9131e-03  1.7423e-02  1.2201e-02  2.7263e-01  3.8470e-03  6.0247e-03  1.4998e-03  0:03:10 1844
   157  3.7999e-03  1.7161e-02  1.1924e-02  2.5676e-01  3.7366e-03  6.0515e-03  1.4869e-03  0:02:32 1843
   158  3.6971e-03  1.6912e-02  1.1625e-02  2.4016e-01  3.6372e-03  6.0704e-03  1.4697e-03  0:02:02 1842
   159  3.6078e-03  1.6651e-02  1.1315e-02  2.2436e-01  3.5513e-03  6.0679e-03  1.4482e-03  0:01:37 1841
   160  3.5336e-03  1.6364e-02  1.0994e-02  2.0997e-01  3.4809e-03  6.0660e-03  1.4476e-03  0:07:26 1840
   161  3.4707e-03  1.6053e-02  1.0675e-02  1.9765e-01  3.4219e-03  6.0572e-03  1.4194e-03  0:05:56 1839
   162  3.4124e-03  1.5759e-02  1.0326e-02  1.8744e-01  3.3672e-03  6.0485e-03  1.4038e-03  0:04:45 1838
   163  3.3568e-03  1.5462e-02  9.9479e-03  1.7814e-01  3.3149e-03  6.0424e-03  1.3819e-03  0:03:48 1837
   164  3.3020e-03  1.5149e-02  9.5518e-03  1.7046e-01  3.2628e-03  6.0395e-03  1.3646e-03  0:03:02 1836
   165  3.2469e-03  1.4820e-02  9.1467e-03  1.6477e-01  3.2100e-03  6.0329e-03  1.3437e-03  0:02:26 1835

  iter  continuity  x-velocity  y-velocity  z-velocity      energy           k       omega     time/iter
   166  3.1893e-03  1.4477e-02  8.7316e-03  1.6159e-01  3.1541e-03  6.0277e-03  1.3244e-03  0:01:56 1834
   167  3.1292e-03  1.4116e-02  8.3122e-03  1.6199e-01  3.0951e-03  6.0163e-03  1.3011e-03  0:07:40 1833
   168  3.0662e-03  1.3741e-02  7.8937e-03  1.6577e-01  3.0328e-03  5.9948e-03  1.2801e-03  0:06:08 1832
   169  3.0013e-03  1.3352e-02  7.4797e-03  1.7330e-01  2.9681e-03  5.9530e-03  1.2629e-03  0:04:54 1831
   170  2.9351e-03  1.2951e-02  7.0737e-03  1.8378e-01  2.9018e-03  5.8858e-03  1.2470e-03  0:03:55 1830
   171  2.8690e-03  1.2540e-02  6.6782e-03  1.9674e-01  2.8351e-03  5.8012e-03  1.2309e-03  0:03:08 1829
   172  2.8050e-03  1.2122e-02  6.2960e-03  2.1160e-01  2.7702e-03  5.7162e-03  1.2138e-03  0:02:30 1828
   173  2.7459e-03  1.1701e-02  5.9296e-03  2.2767e-01  2.7100e-03  5.6186e-03  1.1997e-03  0:02:00 1827
   174  2.6931e-03  1.1280e-02  5.5816e-03  2.4447e-01  2.6558e-03  5.5302e-03  1.1850e-03  0:01:36 1826
   175  2.6480e-03  1.0864e-02  5.2542e-03  2.6245e-01  2.6091e-03  5.4395e-03  1.1673e-03  0:07:22 1825
   176  2.6147e-03  1.0455e-02  4.9501e-03  2.8084e-01  2.5741e-03  5.3433e-03  1.1460e-03  0:05:53 1824

  iter  continuity  x-velocity  y-velocity  z-velocity      energy           k       omega     time/iter
   177  2.5968e-03  1.0057e-02  4.6717e-03  2.9973e-01  2.5544e-03  5.2413e-03  1.1321e-03  0:04:42 1823
   178  2.5965e-03  9.6739e-03  4.4205e-03  3.1839e-01  2.5525e-03  5.1295e-03  1.1235e-03  0:03:46 1822
   179  2.6167e-03  9.3087e-03  4.1971e-03  3.3640e-01  2.5711e-03  5.0167e-03  1.1162e-03  0:03:01 1821
   180  2.6577e-03  8.9647e-03  4.0029e-03  3.5349e-01  2.6109e-03  4.8994e-03  1.1034e-03  0:02:24 1820
   181  2.7195e-03  8.6411e-03  3.8405e-03  3.7001e-01  2.6716e-03  4.7776e-03  1.0883e-03  0:01:55 1819
   182  2.8006e-03  8.3449e-03  3.7068e-03  3.8501e-01  2.7519e-03  4.6540e-03  1.0719e-03  0:01:32 1818
   183  2.8988e-03  8.0779e-03  3.6014e-03  3.9917e-01  2.8495e-03  4.5415e-03  1.0519e-03  0:07:17 1817
   184  3.0108e-03  7.8405e-03  3.5242e-03  4.1111e-01  2.9611e-03  4.4313e-03  1.0414e-03  0:05:50 1816
   185  3.1339e-03  7.6318e-03  3.4738e-03  4.2159e-01  3.0839e-03  4.3318e-03  1.0240e-03  0:04:39 1815
   186  3.2654e-03  7.4517e-03  3.4479e-03  4.3600e-01  3.2153e-03  4.2425e-03  1.0115e-03  0:03:43 1814
   187  3.4030e-03  7.2978e-03  3.4442e-03  4.4573e-01  3.3528e-03  4.1451e-03  9.9552e-04  0:02:59 1813

  iter  continuity  x-velocity  y-velocity  z-velocity      energy           k       omega     time/iter
   188  3.5437e-03  7.1675e-03  3.4599e-03  4.5442e-01  3.4936e-03  4.0781e-03  9.8507e-04  0:02:23 1812
   189  3.6849e-03  7.0586e-03  3.4926e-03  4.6107e-01  3.6348e-03  4.0360e-03  9.7401e-04  0:07:56 1811
   190  3.8241e-03  6.9688e-03  3.5396e-03  4.6485e-01  3.7741e-03  3.9939e-03  9.6222e-04  0:06:21 1810
   191  3.9584e-03  6.8951e-03  3.5987e-03  4.6581e-01  3.9085e-03  3.9282e-03  9.5321e-04  0:05:05 1809
   192  4.0858e-03  6.8352e-03  3.6675e-03  4.6453e-01  4.0361e-03  3.8596e-03  9.4555e-04  0:04:04 1808
   193  4.2043e-03  6.7853e-03  3.7449e-03  4.6067e-01  4.1548e-03  3.7950e-03  9.3808e-04  0:03:15 1807
   194  4.3119e-03  6.7429e-03  3.8287e-03  4.5387e-01  4.2626e-03  3.7506e-03  9.2919e-04  0:02:36 1806
   195  4.4066e-03  6.7059e-03  3.9174e-03  4.4492e-01  4.3576e-03  3.7118e-03  9.1979e-04  0:02:04 1805
   196  4.4870e-03  6.6700e-03  4.0098e-03  4.3395e-01  4.4383e-03  3.6703e-03  9.1156e-04  0:01:40 1804
   197  4.5514e-03  6.6382e-03  4.1041e-03  4.2113e-01  4.5031e-03  3.6146e-03  8.9702e-04  0:07:20 1803
   198  4.5983e-03  6.6091e-03  4.1994e-03  4.0605e-01  4.5504e-03  3.5570e-03  8.8515e-04  0:05:52 1802

  iter  continuity  x-velocity  y-velocity  z-velocity      energy           k       omega     time/iter
   199  4.6268e-03  6.5819e-03  4.2948e-03  3.8973e-01  4.5793e-03  3.4783e-03  8.7330e-04  0:04:41 1801
   200  4.6361e-03  6.5565e-03  4.3893e-03  3.7306e-01  4.5892e-03  3.3922e-03  8.5620e-04  0:03:45 1800
   201  4.6260e-03  6.5329e-03  4.4819e-03  3.5587e-01  4.5795e-03  3.3114e-03  8.4539e-04  0:03:00 1799
   202  4.5959e-03  6.5112e-03  4.5716e-03  3.3922e-01  4.5501e-03  3.2322e-03  8.3292e-04  0:02:24 1798
   203  4.5465e-03  6.4920e-03  4.6575e-03  3.2310e-01  4.5013e-03  3.1492e-03  8.1752e-04  0:01:55 1797
   204  4.4782e-03  6.4759e-03  4.7387e-03  3.0664e-01  4.4336e-03  3.0647e-03  8.0127e-04  0:01:32 1796
   205  4.3916e-03  6.4633e-03  4.8143e-03  2.8960e-01  4.3477e-03  2.9829e-03  7.8511e-04  0:07:13 1795
   206  4.2881e-03  6.4549e-03  4.8837e-03  2.7447e-01  4.2449e-03  2.8962e-03  7.6766e-04  0:05:46 1794
   207  4.1695e-03  6.4521e-03  4.9457e-03  2.6025e-01  4.1270e-03  2.8145e-03  7.5023e-04  0:04:37 1793
   208  4.0372e-03  6.4566e-03  4.9994e-03  2.4679e-01  3.9955e-03  2.7338e-03  7.3593e-04  0:03:41 1792
   209  3.8938e-03  6.4678e-03  5.0443e-03  2.3565e-01  3.8528e-03  2.6632e-03  7.2428e-04  0:02:57 1791

  iter  continuity  x-velocity  y-velocity  z-velocity      energy           k       omega     time/iter
   210  3.7404e-03  6.4849e-03  5.0799e-03  2.2632e-01  3.7002e-03  2.6022e-03  7.1219e-04  0:02:21 1790
   211  3.5785e-03  6.5059e-03  5.1059e-03  2.1869e-01  3.5390e-03  2.5470e-03  6.9898e-04  0:01:53 1789
   212  3.4093e-03  6.5298e-03  5.1216e-03  2.1236e-01  3.3706e-03  2.4940e-03  6.8222e-04  0:01:30 1788
   213  3.2351e-03  6.5563e-03  5.1269e-03  2.0791e-01  3.1970e-03  2.4397e-03  6.6873e-04  0:01:12 1787
   214  3.0585e-03  6.5849e-03  5.1212e-03  2.0476e-01  3.0211e-03  2.3829e-03  6.5694e-04  0:06:55 1786
   215  2.8769e-03  6.6140e-03  5.1047e-03  2.0306e-01  2.8400e-03  2.3283e-03  6.4297e-04  0:05:32 1785
   216  2.6972e-03  6.6427e-03  5.0772e-03  2.0267e-01  2.6607e-03  2.2715e-03  6.2843e-04  0:04:25 1784
   217  2.5209e-03  6.6694e-03  5.0386e-03  2.0322e-01  2.4849e-03  2.2216e-03  6.1350e-04  0:03:32 1783
   218  2.3469e-03  6.6904e-03  4.9888e-03  2.0435e-01  2.3111e-03  2.1718e-03  6.0473e-04  0:02:50 1782
   219  2.1836e-03  6.7073e-03  4.9283e-03  2.0588e-01  2.1481e-03  2.1249e-03  5.9609e-04  0:02:16 1781
   220  2.0267e-03  6.7174e-03  4.8576e-03  2.0743e-01  1.9913e-03  2.0822e-03  5.8114e-04  0:01:48 1780

  iter  continuity  x-velocity  y-velocity  z-velocity      energy           k       omega     time/iter
   221  1.8837e-03  6.7188e-03  4.7768e-03  2.0905e-01  1.8485e-03  2.0458e-03  5.7438e-04  0:01:27 1779
   222  1.7517e-03  6.7098e-03  4.6867e-03  2.1006e-01  1.7166e-03  2.0157e-03  5.6562e-04  0:07:05 1778
   223  1.6301e-03  6.6893e-03  4.5879e-03  2.1070e-01  1.5950e-03  1.9945e-03  5.5688e-04  0:05:40 1777
   224  1.5269e-03  6.6571e-03  4.4810e-03  2.1139e-01  1.4918e-03  1.9785e-03  5.4613e-04  0:04:32 1776
   225  1.4423e-03  6.6131e-03  4.3668e-03  2.1060e-01  1.4074e-03  1.9660e-03  5.3704e-04  0:03:37 1775
   226  1.3768e-03  6.5569e-03  4.2459e-03  2.0860e-01  1.3425e-03  1.9621e-03  5.2767e-04  0:02:54 1774
   227  1.3310e-03  6.4883e-03  4.1195e-03  2.0613e-01  1.2974e-03  1.9725e-03  5.2171e-04  0:08:13 1773
   228  1.3017e-03  6.4079e-03  3.9887e-03  2.0291e-01  1.2691e-03  1.9838e-03  5.1369e-04  0:06:35 1772
   229  1.2885e-03  6.3165e-03  3.8546e-03  1.9882e-01  1.2571e-03  1.9997e-03  5.0725e-04  0:05:15 1771
   230  1.2886e-03  6.2149e-03  3.7183e-03  1.9480e-01  1.2586e-03  2.0202e-03  4.9881e-04  0:04:12 1770
   231  1.2982e-03  6.1041e-03  3.5812e-03  1.9076e-01  1.2695e-03  2.0287e-03  4.9823e-04  0:03:22 1769

  iter  continuity  x-velocity  y-velocity  z-velocity      energy           k       omega     time/iter
   232  1.3148e-03  5.9839e-03  3.4441e-03  1.8680e-01  1.2875e-03  2.0407e-03  4.9219e-04  0:02:41 1768
   233  1.3367e-03  5.8553e-03  3.3087e-03  1.8305e-01  1.3108e-03  2.0569e-03  4.8965e-04  0:02:09 1767
   234  1.3619e-03  5.7208e-03  3.1755e-03  1.7898e-01  1.3372e-03  2.0740e-03  4.8737e-04  0:07:36 1766
   235  1.3892e-03  5.5801e-03  3.0464e-03  1.7485e-01  1.3657e-03  2.0949e-03  4.8637e-04  0:06:05 1765
   236  1.4175e-03  5.4349e-03  2.9221e-03  1.7050e-01  1.3951e-03  2.1227e-03  4.8614e-04  0:04:52 1764
   237  1.4467e-03  5.2870e-03  2.8036e-03  1.6571e-01  1.4252e-03  2.1563e-03  4.8475e-04  0:03:53 1763
   238  1.4766e-03  5.1382e-03  2.6920e-03  1.6048e-01  1.4560e-03  2.1927e-03  4.7987e-04  0:03:06 1762
   239  1.5078e-03  4.9899e-03  2.5879e-03  1.5530e-01  1.4880e-03  2.2281e-03  4.7398e-04  0:02:29 1761
   240  1.5402e-03  4.8435e-03  2.4921e-03  1.5031e-01  1.5211e-03  2.2625e-03  4.6916e-04  0:01:59 1760
   241  1.5741e-03  4.6979e-03  2.4056e-03  1.4543e-01  1.5556e-03  2.2952e-03  4.6625e-04  0:07:27 1759
   242  1.6096e-03  4.5576e-03  2.3285e-03  1.4102e-01  1.5916e-03  2.3249e-03  4.6409e-04  0:05:57 1758

  iter  continuity  x-velocity  y-velocity  z-velocity      energy           k       omega     time/iter
   243  1.6459e-03  4.4252e-03  2.2601e-03  1.3720e-01  1.6284e-03  2.3509e-03  4.6483e-04  0:04:46 1757
   244  1.6836e-03  4.3001e-03  2.2006e-03  1.3405e-01  1.6665e-03  2.3732e-03  4.6776e-04  0:03:49 1756
   245  1.7248e-03  4.1826e-03  2.1500e-03  1.3172e-01  1.7082e-03  2.3915e-03  4.7012e-04  0:03:03 1755
   246  1.7668e-03  4.0729e-03  2.1081e-03  1.2978e-01  1.7505e-03  2.4066e-03  4.7205e-04  0:02:26 1754
   247  1.8057e-03  3.9710e-03  2.0743e-03  1.2831e-01  1.7897e-03  2.4204e-03  4.7148e-04  0:01:57 1753
   248  1.8447e-03  3.8765e-03  2.0479e-03  1.2795e-01  1.8289e-03  2.4301e-03  4.7618e-04  0:07:24 1752
   249  1.8816e-03  3.7897e-03  2.0278e-03  1.2865e-01  1.8661e-03  2.4417e-03  4.8343e-04  0:05:55 1751
   250  1.9143e-03  3.7100e-03  2.0128e-03  1.3026e-01  1.8989e-03  2.4464e-03  4.8917e-04  0:04:44 1750
   251  1.9449e-03  3.6353e-03  2.0027e-03  1.3289e-01  1.9297e-03  2.4505e-03  4.9644e-04  0:03:47 1749
   252  1.9716e-03  3.5674e-03  1.9964e-03  1.3603e-01  1.9567e-03  2.4596e-03  5.0356e-04  0:03:01 1748
   253  1.9940e-03  3.5066e-03  1.9931e-03  1.3988e-01  1.9792e-03  2.4713e-03  5.0770e-04  0:02:25 1747

  iter  continuity  x-velocity  y-velocity  z-velocity      energy           k       omega     time/iter
   254  2.0112e-03  3.4531e-03  1.9920e-03  1.4413e-01  1.9966e-03  2.4866e-03  5.1450e-04  0:01:56 1746
   255  2.0227e-03  3.4059e-03  1.9920e-03  1.4845e-01  2.0084e-03  2.5010e-03  5.2236e-04  0:07:22 1745
   256  2.0287e-03  3.3639e-03  1.9925e-03  1.5263e-01  2.0145e-03  2.5208e-03  5.2939e-04  0:05:53 1744
   257  2.0293e-03  3.3250e-03  1.9927e-03  1.5654e-01  2.0154e-03  2.5387e-03  5.3526e-04  0:04:42 1743
   258  2.0250e-03  3.2906e-03  1.9923e-03  1.5987e-01  2.0114e-03  2.5528e-03  5.4279e-04  0:03:46 1742
   259  2.0166e-03  3.2606e-03  1.9906e-03  1.6302e-01  2.0033e-03  2.5704e-03  5.5103e-04  0:03:01 1741
   260  2.0049e-03  3.2348e-03  1.9875e-03  1.6533e-01  1.9919e-03  2.5893e-03  5.5617e-04  0:02:24 1740
   261  1.9902e-03  3.2130e-03  1.9829e-03  1.6717e-01  1.9777e-03  2.6159e-03  5.6149e-04  0:01:55 1739
   262  1.9704e-03  3.1956e-03  1.9765e-03  1.6888e-01  1.9583e-03  2.6441e-03  5.6395e-04  0:07:20 1738
   263  1.9465e-03  3.1822e-03  1.9675e-03  1.7010e-01  1.9349e-03  2.6716e-03  5.6624e-04  0:05:52 1737
   264  1.9185e-03  3.1719e-03  1.9560e-03  1.7045e-01  1.9074e-03  2.7061e-03  5.7007e-04  0:04:41 1736

  iter  continuity  x-velocity  y-velocity  z-velocity      energy           k       omega     time/iter
   265  1.8870e-03  3.1645e-03  1.9417e-03  1.7006e-01  1.8764e-03  2.7387e-03  5.7283e-04  0:03:45 1735
   266  1.8509e-03  3.1598e-03  1.9248e-03  1.6922e-01  1.8408e-03  2.7594e-03  5.7484e-04  0:03:00 1734
   267  1.8112e-03  3.1567e-03  1.9054e-03  1.6782e-01  1.8017e-03  2.7838e-03  5.7907e-04  0:02:24 1733
   268  1.7687e-03  3.1559e-03  1.8836e-03  1.6591e-01  1.7599e-03  2.8153e-03  5.8173e-04  0:01:55 1732
   269  1.7244e-03  3.1572e-03  1.8593e-03  1.6323e-01  1.7162e-03  2.8473e-03  5.8408e-04  0:07:18 1731
   270  1.6795e-03  3.1608e-03  1.8327e-03  1.5988e-01  1.6719e-03  2.8817e-03  5.8583e-04  0:05:50 1730
   271  1.6296e-03  3.1655e-03  1.8041e-03  1.5615e-01  1.6225e-03  2.9218e-03  5.8682e-04  0:04:40 1729
   272  1.5781e-03  3.1710e-03  1.7737e-03  1.5197e-01  1.5716e-03  2.9607e-03  5.8762e-04  0:03:44 1728
   273  1.5295e-03  3.1776e-03  1.7415e-03  1.4741e-01  1.5236e-03  2.9990e-03  5.8619e-04  0:02:59 1727
   274  1.4790e-03  3.1840e-03  1.7078e-03  1.4229e-01  1.4737e-03  3.0357e-03  5.8550e-04  0:02:23 1726
   275  1.4285e-03  3.1902e-03  1.6729e-03  1.3667e-01  1.4239e-03  3.0675e-03  5.8657e-04  0:01:54 1725

  iter  continuity  x-velocity  y-velocity  z-velocity      energy           k       omega     time/iter
   276  1.3787e-03  3.1959e-03  1.6368e-03  1.3075e-01  1.3745e-03  3.1006e-03  5.8564e-04  0:01:31 1724
   277  1.3288e-03  3.2001e-03  1.5998e-03  1.2492e-01  1.3252e-03  3.1314e-03  5.8661e-04  0:06:58 1723
   278  1.2789e-03  3.2020e-03  1.5621e-03  1.1924e-01  1.2758e-03  3.1599e-03  5.8827e-04  0:05:34 1722
   279  1.2292e-03  3.2016e-03  1.5239e-03  1.1381e-01  1.2266e-03  3.1871e-03  5.8913e-04  0:04:27 1721
   280  1.1806e-03  3.1983e-03  1.4855e-03  1.0871e-01  1.1784e-03  3.2139e-03  5.8640e-04  0:03:34 1720
   281  1.1340e-03  3.1918e-03  1.4469e-03  1.0386e-01  1.1322e-03  3.2360e-03  5.8656e-04  0:02:51 1719
   282  1.0897e-03  3.1818e-03  1.4083e-03  9.9314e-02  1.0882e-03  3.2659e-03  5.8676e-04  0:02:16 1718
   283  1.0482e-03  3.1682e-03  1.3698e-03  9.5306e-02  1.0471e-03  3.2982e-03  5.8522e-04  0:01:49 1717
   284  1.0097e-03  3.1510e-03  1.3313e-03  9.1884e-02  1.0089e-03  3.3284e-03  5.8209e-04  0:07:10 1716
   285  9.7514e-04  3.1299e-03  1.2931e-03  8.9003e-02  9.7462e-04  3.3562e-03  5.7695e-04  0:05:44 1715
   286  9.4392e-04  3.1049e-03  1.2552e-03  8.6764e-02  9.4363e-04  3.3830e-03  5.7073e-04  0:04:35 1714

  iter  continuity  x-velocity  y-velocity  z-velocity      energy           k       omega     time/iter
   287  9.1557e-04  3.0760e-03  1.2176e-03  8.5046e-02  9.1548e-04  3.3998e-03  5.6470e-04  0:03:40 1713
   288  8.9093e-04  3.0432e-03  1.1804e-03  8.3922e-02  8.9099e-04  3.3984e-03  5.5665e-04  0:02:56 1712
   289  8.7005e-04  3.0071e-03  1.1435e-03  8.3088e-02  8.7024e-04  3.3946e-03  5.4699e-04  0:02:21 1711
   290  8.5293e-04  2.9678e-03  1.1071e-03  8.2740e-02  8.5323e-04  3.3859e-03  5.3906e-04  0:07:34 1710
   291  8.3948e-04  2.9259e-03  1.0709e-03  8.2636e-02  8.3987e-04  3.3764e-03  5.3518e-04  0:06:03 1709
   292  8.2891e-04  2.8808e-03  1.0352e-03  8.2702e-02  8.2935e-04  3.3661e-03  5.3164e-04  0:04:51 1708
   293  8.2069e-04  2.8332e-03  9.9994e-04  8.2956e-02  8.2118e-04  3.3437e-03  5.2430e-04  0:03:52 1707
   294  8.1429e-04  2.7838e-03  9.6524e-04  8.3284e-02  8.1482e-04  3.3262e-03  5.1800e-04  0:03:06 1706
   295  8.0958e-04  2.7332e-03  9.3118e-04  8.3421e-02  8.1013e-04  3.3110e-03  5.1062e-04  0:02:28 1705
   296  8.0652e-04  2.6820e-03  8.9795e-04  8.3481e-02  8.0708e-04  3.2933e-03  5.0469e-04  0:01:59 1704
   297  8.0499e-04  2.6307e-03  8.6536e-04  8.3421e-02  8.0555e-04  3.2725e-03  4.9887e-04  0:01:35 1703

  iter  continuity  x-velocity  y-velocity  z-velocity      energy           k       omega     time/iter
   298  8.0491e-04  2.5792e-03  8.3350e-04  8.3180e-02  8.0545e-04  3.2460e-03  4.9147e-04  0:06:56 1702
   299  8.0622e-04  2.5280e-03  8.0246e-04  8.2661e-02  8.0674e-04  3.2322e-03  4.8325e-04  0:05:33 1701
   300  8.0900e-04  2.4775e-03  7.7239e-04  8.1951e-02  8.0948e-04  3.2002e-03  4.7369e-04  0:04:26 1700
   301  8.1189e-04  2.4279e-03  7.4331e-04  8.1084e-02  8.1232e-04  3.1577e-03  4.6554e-04  0:03:33 1699
   302  8.1577e-04  2.3796e-03  7.1509e-04  8.0098e-02  8.1614e-04  3.1249e-03  4.6091e-04  0:02:50 1698
   303  8.2009e-04  2.3329e-03  6.8792e-04  7.8998e-02  8.2039e-04  3.0934e-03  4.5589e-04  0:02:16 1697
   304  8.2517e-04  2.2877e-03  6.6196e-04  7.7928e-02  8.2540e-04  3.0617e-03  4.5088e-04  0:01:49 1696
   305  8.3133e-04  2.2445e-03  6.3721e-04  7.6808e-02  8.3149e-04  3.0345e-03  4.4553e-04  0:01:27 1695
   306  8.3902e-04  2.2030e-03  6.1388e-04  7.5413e-02  8.3909e-04  3.0101e-03  4.4029e-04  0:06:48 1694
   307  8.4742e-04  2.1636e-03  5.9215e-04  7.3866e-02  8.4741e-04  2.9843e-03  4.3342e-04  0:05:26 1693
   308  8.5560e-04  2.1264e-03  5.7193e-04  7.2250e-02  8.5551e-04  2.9623e-03  4.2767e-04  0:04:21 1692

  iter  continuity  x-velocity  y-velocity  z-velocity      energy           k       omega     time/iter
   309  8.6400e-04  2.0918e-03  5.5355e-04  7.0549e-02  8.6383e-04  2.9495e-03  4.2197e-04  0:03:29 1691
   310  8.7285e-04  2.0595e-03  5.3705e-04  6.8720e-02  8.7262e-04  2.9413e-03  4.1682e-04  0:02:47 1690
   311  8.8231e-04  2.0297e-03  5.2211e-04  6.6728e-02  8.8201e-04  2.9268e-03  4.1223e-04  0:02:13 1689
   312  8.9170e-04  2.0024e-03  5.0865e-04  6.4604e-02  8.9135e-04  2.9128e-03  4.0729e-04  0:01:47 1688
   313  9.0012e-04  1.9775e-03  4.9664e-04  6.2505e-02  8.9973e-04  2.8865e-03  4.0090e-04  0:07:03 1687
   314  9.0649e-04  1.9544e-03  4.8585e-04  6.0323e-02  9.0606e-04  2.8619e-03  3.9681e-04  0:05:38 1686
   315  9.1151e-04  1.9331e-03  4.7604e-04  5.8277e-02  9.1104e-04  2.8398e-03  3.9277e-04  0:04:30 1685
   316  9.1567e-04  1.9134e-03  4.6714e-04  5.6331e-02  9.1518e-04  2.8105e-03  3.8989e-04  0:03:36 1684
   317  9.1798e-04  1.8951e-03  4.5906e-04  5.4526e-02  9.1746e-04  2.7717e-03  3.8618e-04  0:02:53 1683
   318  9.1837e-04  1.8777e-03  4.5172e-04  5.2862e-02  9.1783e-04  2.7296e-03  3.8439e-04  0:02:18 1682
   319  9.1749e-04  1.8610e-03  4.4497e-04  5.1363e-02  9.1691e-04  2.6867e-03  3.8132e-04  0:01:50 1681

  iter  continuity  x-velocity  y-velocity  z-velocity      energy           k       omega     time/iter
   320  9.1376e-04  1.8448e-03  4.3868e-04  5.0031e-02  9.1314e-04  2.6443e-03  3.7823e-04  0:07:04 1680
   321  9.0935e-04  1.8291e-03  4.3290e-04  4.8827e-02  9.0868e-04  2.6050e-03  3.7480e-04  0:05:39 1679
   322  9.0474e-04  1.8136e-03  4.2776e-04  4.7693e-02  9.0400e-04  2.5663e-03  3.7115e-04  0:04:31 1678
   323  8.9918e-04  1.7984e-03  4.2340e-04  4.6628e-02  8.9835e-04  2.5256e-03  3.6847e-04  0:03:37 1677
   324  8.9292e-04  1.7833e-03  4.2009e-04  4.5657e-02  8.9198e-04  2.4928e-03  3.6630e-04  0:02:53 1676
   325  8.8653e-04  1.7685e-03  4.1819e-04  4.4759e-02  8.8545e-04  2.4592e-03  3.6327e-04  0:02:19 1675
   326  8.8089e-04  1.7542e-03  4.1806e-04  4.3927e-02  8.7964e-04  2.4275e-03  3.6108e-04  0:01:51 1674
   327  8.7587e-04  1.7406e-03  4.1993e-04  4.3133e-02  8.7440e-04  2.3976e-03  3.5881e-04  0:07:03 1673
   328  8.7175e-04  1.7277e-03  4.2403e-04  4.2359e-02  8.7004e-04  2.3722e-03  3.5803e-04  0:05:38 1672
   329  8.6894e-04  1.7158e-03  4.3070e-04  4.1755e-02  8.6695e-04  2.3478e-03  3.5851e-04  0:04:31 1671
   330  8.6778e-04  1.7050e-03  4.4022e-04  4.1151e-02  8.6545e-04  2.3293e-03  3.5731e-04  0:03:36 1670

  iter  continuity  x-velocity  y-velocity  z-velocity      energy           k       omega     time/iter
   331  8.6866e-04  1.6958e-03  4.5279e-04  4.0497e-02  8.6595e-04  2.3093e-03  3.5686e-04  0:02:53 1669
   332  8.7093e-04  1.6883e-03  4.6855e-04  3.9788e-02  8.6781e-04  2.2898e-03  3.5642e-04  0:02:18 1668
   333  8.7567e-04  1.6825e-03  4.8729e-04  3.9072e-02  8.7209e-04  2.2754e-03  3.5507e-04  0:01:51 1667
   334  8.8206e-04  1.6790e-03  5.0882e-04  3.8422e-02  8.7798e-04  2.2696e-03  3.5232e-04  0:01:28 1666
   335  8.9056e-04  1.6777e-03  5.3307e-04  3.7707e-02  8.8594e-04  2.2648e-03  3.5152e-04  0:06:44 1665
   336  9.0141e-04  1.6787e-03  5.5977e-04  3.6869e-02  8.9621e-04  2.2610e-03  3.5237e-04  0:05:23 1664
   337  9.1436e-04  1.6818e-03  5.8870e-04  3.6024e-02  9.0856e-04  2.2600e-03  3.5136e-04  0:04:18 1663
   338  9.2941e-04  1.6867e-03  6.1961e-04  3.5224e-02  9.2297e-04  2.2605e-03  3.5167e-04  0:03:26 1662
   339  9.4650e-04  1.6933e-03  6.5236e-04  3.4554e-02  9.3940e-04  2.2638e-03  3.5156e-04  0:02:45 1661
   340  9.6568e-04  1.7013e-03  6.8678e-04  3.4047e-02  9.5789e-04  2.2676e-03  3.5191e-04  0:02:12 1660
   341  9.8696e-04  1.7105e-03  7.2276e-04  3.3724e-02  9.7846e-04  2.2764e-03  3.5114e-04  0:01:45 1659

  iter  continuity  x-velocity  y-velocity  z-velocity      energy           k       omega     time/iter
   342  1.0102e-03  1.7204e-03  7.6025e-04  3.3612e-02  1.0010e-03  2.2912e-03  3.5109e-04  0:06:56 1658
   343  1.0351e-03  1.7307e-03  7.9918e-04  3.3721e-02  1.0252e-03  2.2945e-03  3.5116e-04  0:05:33 1657
   344  1.0614e-03  1.7411e-03  8.3951e-04  3.4015e-02  1.0507e-03  2.2887e-03  3.5109e-04  0:04:26 1656
   345  1.0892e-03  1.7515e-03  8.8118e-04  3.4532e-02  1.0778e-03  2.2817e-03  3.5055e-04  0:03:33 1655
   346  1.1184e-03  1.7614e-03  9.2405e-04  3.5220e-02  1.1062e-03  2.2702e-03  3.4944e-04  0:02:50 1654
   347  1.1483e-03  1.7708e-03  9.6805e-04  3.6042e-02  1.1354e-03  2.2591e-03  3.4825e-04  0:02:16 1653
   348  1.1785e-03  1.7795e-03  1.0131e-03  3.6996e-02  1.1648e-03  2.2524e-03  3.4573e-04  0:07:19 1652
   349  1.2085e-03  1.7874e-03  1.0592e-03  3.8060e-02  1.1941e-03  2.2465e-03  3.4342e-04  0:05:51 1651
   350  1.2384e-03  1.7943e-03  1.1061e-03  3.9186e-02  1.2233e-03  2.2349e-03  3.4066e-04  0:04:41 1650
   351  1.2679e-03  1.8000e-03  1.1539e-03  4.0323e-02  1.2521e-03  2.2253e-03  3.3861e-04  0:03:44 1649
   352  1.2966e-03  1.8048e-03  1.2024e-03  4.1466e-02  1.2801e-03  2.2184e-03  3.3643e-04  0:02:59 1648

  iter  continuity  x-velocity  y-velocity  z-velocity      energy           k       omega     time/iter
   353  1.3240e-03  1.8085e-03  1.2515e-03  4.2590e-02  1.3068e-03  2.2162e-03  3.3385e-04  0:02:23 1647
   354  1.3496e-03  1.8112e-03  1.3012e-03  4.3632e-02  1.3317e-03  2.2082e-03  3.3076e-04  0:01:55 1646
   355  1.3736e-03  1.8130e-03  1.3513e-03  4.4748e-02  1.3551e-03  2.1954e-03  3.2728e-04  0:01:32 1645
   356  1.3958e-03  1.8142e-03  1.4016e-03  4.5451e-02  1.3767e-03  2.1807e-03  3.2543e-04  0:06:42 1644
   357  1.4160e-03  1.8148e-03  1.4519e-03  4.6239e-02  1.3962e-03  2.1649e-03  3.2315e-04  0:05:21 1643
   358  1.4339e-03  1.8151e-03  1.5021e-03  4.7045e-02  1.4135e-03  2.1537e-03  3.1989e-04  0:04:17 1642
   359  1.4492e-03  1.8151e-03  1.5519e-03  4.7786e-02  1.4282e-03  2.1500e-03  3.1713e-04  0:03:25 1641
   360  1.4622e-03  1.8153e-03  1.6013e-03  4.8434e-02  1.4406e-03  2.1469e-03  3.1355e-04  0:02:44 1640
   361  1.4729e-03  1.8158e-03  1.6500e-03  4.9144e-02  1.4508e-03  2.1436e-03  3.0961e-04  0:02:11 1639
   362  1.4813e-03  1.8168e-03  1.6977e-03  4.9878e-02  1.4587e-03  2.1378e-03  3.0519e-04  0:07:13 1638
   363  1.4874e-03  1.8188e-03  1.7444e-03  5.0653e-02  1.4644e-03  2.1310e-03  3.0204e-04  0:05:46 1637

  iter  continuity  x-velocity  y-velocity  z-velocity      energy           k       omega     time/iter
   364  1.4914e-03  1.8219e-03  1.7897e-03  5.1440e-02  1.4678e-03  2.1209e-03  2.9905e-04  0:04:37 1636
   365  1.4932e-03  1.8264e-03  1.8336e-03  5.2211e-02  1.4693e-03  2.1121e-03  2.9505e-04  0:03:41 1635
   366  1.4932e-03  1.8324e-03  1.8759e-03  5.2924e-02  1.4689e-03  2.1010e-03  2.9204e-04  0:02:57 1634
   367  1.4915e-03  1.8402e-03  1.9164e-03  5.3541e-02  1.4667e-03  2.0896e-03  2.8853e-04  0:02:21 1633
   368  1.4881e-03  1.8497e-03  1.9549e-03  5.4078e-02  1.4630e-03  2.0775e-03  2.8474e-04  0:01:53 1632
   369  1.4832e-03  1.8610e-03  1.9914e-03  5.4495e-02  1.4578e-03  2.0599e-03  2.8161e-04  0:06:57 1631
   370  1.4771e-03  1.8740e-03  2.0256e-03  5.4778e-02  1.4514e-03  2.0455e-03  2.7810e-04  0:05:33 1630
   371  1.4699e-03  1.8885e-03  2.0576e-03  5.4882e-02  1.4440e-03  2.0327e-03  2.7500e-04  0:04:26 1629
   372  1.4618e-03  1.9044e-03  2.0872e-03  5.4833e-02  1.4356e-03  2.0197e-03  2.7290e-04  0:03:33 1628
   373  1.4529e-03  1.9215e-03  2.1143e-03  5.4633e-02  1.4265e-03  2.0058e-03  2.7130e-04  0:02:50 1627
   374  1.4434e-03  1.9394e-03  2.1389e-03  5.4246e-02  1.4168e-03  1.9949e-03  2.6934e-04  0:02:16 1626

  iter  continuity  x-velocity  y-velocity  z-velocity      energy           k       omega     time/iter
   375  1.4334e-03  1.9580e-03  2.1608e-03  5.3679e-02  1.4067e-03  1.9860e-03  2.6600e-04  0:01:49 1625
   376  1.4231e-03  1.9768e-03  2.1800e-03  5.2967e-02  1.3962e-03  1.9730e-03  2.6299e-04  0:06:52 1624
   377  1.4126e-03  1.9955e-03  2.1965e-03  5.2117e-02  1.3855e-03  1.9614e-03  2.6054e-04  0:05:29 1623
   378  1.4020e-03  2.0139e-03  2.2105e-03  5.1141e-02  1.3748e-03  1.9487e-03  2.5771e-04  0:04:23 1622
   379  1.3915e-03  2.0315e-03  2.2218e-03  5.0070e-02  1.3642e-03  1.9344e-03  2.5499e-04  0:03:30 1621
   380  1.3812e-03  2.0482e-03  2.2308e-03  4.8835e-02  1.3538e-03  1.9185e-03  2.5214e-04  0:02:48 1620
   381  1.3712e-03  2.0635e-03  2.2373e-03  4.7480e-02  1.3438e-03  1.9038e-03  2.4982e-04  0:02:15 1619
   382  1.3616e-03  2.0774e-03  2.2415e-03  4.6037e-02  1.3341e-03  1.8878e-03  2.4733e-04  0:07:11 1618
   383  1.3525e-03  2.0896e-03  2.2436e-03  4.4529e-02  1.3248e-03  1.8704e-03  2.4459e-04  0:05:45 1617
   384  1.3438e-03  2.0999e-03  2.2437e-03  4.3043e-02  1.3161e-03  1.8516e-03  2.4228e-04  0:04:36 1616
   385  1.3356e-03  2.1082e-03  2.2421e-03  4.1660e-02  1.3078e-03  1.8361e-03  2.4045e-04  0:03:40 1615

  iter  continuity  x-velocity  y-velocity  z-velocity      energy           k       omega     time/iter
   386  1.3279e-03  2.1145e-03  2.2388e-03  4.0275e-02  1.3001e-03  1.8129e-03  2.3894e-04  0:02:56 1614
   387  1.3207e-03  2.1187e-03  2.2342e-03  3.8870e-02  1.2928e-03  1.7874e-03  2.3806e-04  0:02:21 1613
   388  1.3142e-03  2.1208e-03  2.2285e-03  3.7408e-02  1.2862e-03  1.7628e-03  2.3711e-04  0:07:15 1612
   389  1.3084e-03  2.1207e-03  2.2217e-03  3.5931e-02  1.2803e-03  1.7403e-03  2.3669e-04  0:05:48 1611
   390  1.3033e-03  2.1188e-03  2.2142e-03  3.4488e-02  1.2751e-03  1.7191e-03  2.3619e-04  0:04:38 1610
   391  1.2989e-03  2.1152e-03  2.2060e-03  3.3109e-02  1.2706e-03  1.6987e-03  2.3535e-04  0:03:42 1609
   392  1.2952e-03  2.1097e-03  2.1974e-03  3.1811e-02  1.2668e-03  1.6832e-03  2.3441e-04  0:02:58 1608
   393  1.2923e-03  2.1027e-03  2.1886e-03  3.0572e-02  1.2638e-03  1.6698e-03  2.3282e-04  0:02:22 1607
   394  1.2902e-03  2.0942e-03  2.1798e-03  2.9454e-02  1.2615e-03  1.6571e-03  2.3169e-04  0:01:54 1606
   395  1.2889e-03  2.0845e-03  2.1710e-03  2.8472e-02  1.2600e-03  1.6427e-03  2.3014e-04  0:06:52 1605
   396  1.2883e-03  2.0736e-03  2.1625e-03  2.7620e-02  1.2593e-03  1.6267e-03  2.2870e-04  0:05:29 1604

  iter  continuity  x-velocity  y-velocity  z-velocity      energy           k       omega     time/iter
   397  1.2885e-03  2.0619e-03  2.1545e-03  2.6886e-02  1.2593e-03  1.6103e-03  2.2674e-04  0:04:23 1603
   398  1.2893e-03  2.0494e-03  2.1469e-03  2.6262e-02  1.2600e-03  1.5919e-03  2.2382e-04  0:03:30 1602
   399  1.2908e-03  2.0364e-03  2.1400e-03  2.5764e-02  1.2613e-03  1.5727e-03  2.2238e-04  0:02:48 1601
   400  1.2929e-03  2.0231e-03  2.1339e-03  2.5386e-02  1.2632e-03  1.5562e-03  2.2070e-04  0:02:15 1600
   401  1.2955e-03  2.0095e-03  2.1287e-03  2.5104e-02  1.2656e-03  1.5413e-03  2.1896e-04  0:07:07 1599
   402  1.2985e-03  1.9959e-03  2.1244e-03  2.4900e-02  1.2684e-03  1.5261e-03  2.1687e-04  0:05:42 1598
   403  1.3018e-03  1.9824e-03  2.1211e-03  2.4783e-02  1.2715e-03  1.5092e-03  2.1504e-04  0:04:33 1597
   404  1.3054e-03  1.9692e-03  2.1190e-03  2.4727e-02  1.2749e-03  1.4893e-03  2.1304e-04  0:03:38 1596
   405  1.3092e-03  1.9563e-03  2.1179e-03  2.4715e-02  1.2784e-03  1.4679e-03  2.1155e-04  0:02:55 1595
   406  1.3130e-03  1.9439e-03  2.1180e-03  2.4771e-02  1.2821e-03  1.4454e-03  2.1028e-04  0:02:20 1594
   407  1.3168e-03  1.9321e-03  2.1193e-03  2.4879e-02  1.2857e-03  1.4207e-03  2.0787e-04  0:01:52 1593

  iter  continuity  x-velocity  y-velocity  z-velocity      energy           k       omega     time/iter
   408  1.3205e-03  1.9210e-03  2.1217e-03  2.5102e-02  1.2892e-03  1.3996e-03  2.0634e-04  0:06:48 1592
   409  1.3239e-03  1.9107e-03  2.1252e-03  2.5213e-02  1.2924e-03  1.3798e-03  2.0431e-04  0:05:26 1591
   410  1.3270e-03  1.9012e-03  2.1298e-03  2.5307e-02  1.2953e-03  1.3620e-03  2.0241e-04  0:04:21 1590
   411  1.3296e-03  1.8926e-03  2.1354e-03  2.5434e-02  1.2977e-03  1.3433e-03  2.0118e-04  0:03:28 1589
   412  1.3316e-03  1.8849e-03  2.1419e-03  2.5585e-02  1.2995e-03  1.3252e-03  1.9951e-04  0:02:47 1588
   413  1.3329e-03  1.8783e-03  2.1493e-03  2.5747e-02  1.3006e-03  1.3062e-03  1.9739e-04  0:02:13 1587
   414  1.3335e-03  1.8727e-03  2.1574e-03  2.5918e-02  1.3010e-03  1.2876e-03  1.9490e-04  0:07:04 1586
   415  1.3332e-03  1.8687e-03  2.1656e-03  2.6082e-02  1.3005e-03  1.2697e-03  1.9276e-04  0:05:39 1585
   416  1.3320e-03  1.8649e-03  2.1746e-03  2.6271e-02  1.2992e-03  1.2525e-03  1.9043e-04  0:04:31 1584
   417  1.3298e-03  1.8623e-03  2.1841e-03  2.6532e-02  1.2969e-03  1.2344e-03  1.8828e-04  0:03:37 1583
   418  1.3267e-03  1.8609e-03  2.1941e-03  2.6836e-02  1.2936e-03  1.2153e-03  1.8608e-04  0:02:53 1582

  iter  continuity  x-velocity  y-velocity  z-velocity      energy           k       omega     time/iter
   419  1.3225e-03  1.8608e-03  2.2043e-03  2.7076e-02  1.2892e-03  1.1942e-03  1.8380e-04  0:02:18 1581
   420  1.3171e-03  1.8618e-03  2.2146e-03  2.7300e-02  1.2838e-03  1.1730e-03  1.8009e-04  0:01:51 1580
   421  1.3107e-03  1.8640e-03  2.2250e-03  2.7483e-02  1.2773e-03  1.1528e-03  1.7608e-04  0:06:44 1579
   422  1.3032e-03  1.8673e-03  2.2352e-03  2.7602e-02  1.2696e-03  1.1338e-03  1.7299e-04  0:05:23 1578
   423  1.2945e-03  1.8716e-03  2.2452e-03  2.7677e-02  1.2609e-03  1.1163e-03  1.7034e-04  0:04:18 1577
   424  1.2848e-03  1.8770e-03  2.2548e-03  2.7746e-02  1.2511e-03  1.0995e-03  1.6775e-04  0:03:27 1576
   425  1.2740e-03  1.8833e-03  2.2638e-03  2.7829e-02  1.2403e-03  1.0820e-03  1.6531e-04  0:08:00 1575
   426  1.2623e-03  1.8906e-03  2.2722e-03  2.7940e-02  1.2285e-03  1.0644e-03  1.6236e-04  0:06:24 1574
   427  1.2496e-03  1.8987e-03  2.2798e-03  2.8146e-02  1.2157e-03  1.0480e-03  1.5923e-04  0:05:07 1573
   428  1.2360e-03  1.9077e-03  2.2865e-03  2.8355e-02  1.2022e-03  1.0317e-03  1.5617e-04  0:04:05 1572
   429  1.2216e-03  1.9173e-03  2.2922e-03  2.8521e-02  1.1878e-03  1.0135e-03  1.5327e-04  0:03:16 1571

  iter  continuity  x-velocity  y-velocity  z-velocity      energy           k       omega     time/iter
   430  1.2066e-03  1.9274e-03  2.2967e-03  2.8621e-02  1.1728e-03  9.9517e-04  1.5061e-04  0:02:37 1570
   431  1.1910e-03  1.9379e-03  2.3000e-03  2.8651e-02  1.1572e-03  9.7652e-04  1.4827e-04  0:02:05 1569
   432  1.1749e-03  1.9487e-03  2.3020e-03  2.8620e-02  1.1412e-03  9.5783e-04  1.4609e-04  0:06:54 1568
   433  1.1584e-03  1.9596e-03  2.3026e-03  2.8540e-02  1.1248e-03  9.3925e-04  1.4399e-04  0:05:31 1567
   434  1.1416e-03  1.9704e-03  2.3016e-03  2.8430e-02  1.1081e-03  9.2054e-04  1.4202e-04  0:04:25 1566
   435  1.1246e-03  1.9811e-03  2.2992e-03  2.8285e-02  1.0912e-03  9.0231e-04  1.4033e-04  0:03:31 1565
   436  1.1075e-03  1.9913e-03  2.2951e-03  2.8093e-02  1.0742e-03  8.8517e-04  1.3883e-04  0:02:49 1564
   437  1.0903e-03  2.0010e-03  2.2896e-03  2.7871e-02  1.0571e-03  8.6854e-04  1.3714e-04  0:02:15 1563
   438  1.0731e-03  2.0099e-03  2.2824e-03  2.7699e-02  1.0402e-03  8.5247e-04  1.3516e-04  0:07:00 1562
   439  1.0561e-03  2.0180e-03  2.2738e-03  2.7478e-02  1.0234e-03  8.3796e-04  1.3317e-04  0:05:36 1561
   440  1.0394e-03  2.0250e-03  2.2636e-03  2.7206e-02  1.0068e-03  8.2147e-04  1.3164e-04  0:04:29 1560

  iter  continuity  x-velocity  y-velocity  z-velocity      energy           k       omega     time/iter
   441  1.0229e-03  2.0309e-03  2.2519e-03  2.6872e-02  9.9053e-04  8.0568e-04  1.3031e-04  0:03:35 1559
   442  1.0068e-03  2.0355e-03  2.2388e-03  2.6489e-02  9.7466e-04  7.9016e-04  1.2927e-04  0:02:52 1558
   443  9.9115e-04  2.0387e-03  2.2243e-03  2.6077e-02  9.5925e-04  7.7542e-04  1.2839e-04  0:02:17 1557
   444  9.7601e-04  2.0403e-03  2.2085e-03  2.5659e-02  9.4436e-04  7.6084e-04  1.2749e-04  0:07:01 1556
   445  9.6144e-04  2.0403e-03  2.1914e-03  2.5300e-02  9.3006e-04  7.4732e-04  1.2659e-04  0:05:37 1555
   446  9.4752e-04  2.0387e-03  2.1730e-03  2.4963e-02  9.1641e-04  7.3343e-04  1.2554e-04  0:04:29 1554
   447  9.3429e-04  2.0353e-03  2.1534e-03  2.4654e-02  9.0347e-04  7.1976e-04  1.2447e-04  0:03:35 1553
   448  9.2180e-04  2.0301e-03  2.1327e-03  2.4385e-02  8.9126e-04  7.0652e-04  1.2366e-04  0:02:52 1552
   449  9.1006e-04  2.0230e-03  2.1110e-03  2.4146e-02  8.7982e-04  6.9364e-04  1.2272e-04  0:02:18 1551
   450  8.9911e-04  2.0142e-03  2.0884e-03  2.3940e-02  8.6916e-04  6.8136e-04  1.2177e-04  0:01:50 1550
   451  8.8895e-04  2.0036e-03  2.0650e-03  2.3762e-02  8.5929e-04  6.6897e-04  1.2081e-04  0:06:38 1549

  iter  continuity  x-velocity  y-velocity  z-velocity      energy           k       omega     time/iter
   452  8.7960e-04  1.9912e-03  2.0409e-03  2.3608e-02  8.5023e-04  6.5682e-04  1.1986e-04  0:05:18 1548
   453  8.7105e-04  1.9771e-03  2.0163e-03  2.3474e-02  8.4197e-04  6.4469e-04  1.1875e-04  0:04:14 1547
   454  8.6331e-04  1.9614e-03  1.9912e-03  2.3352e-02  8.3452e-04  6.3299e-04  1.1762e-04  0:03:23 1546
   455  8.5637e-04  1.9441e-03  1.9659e-03  2.3242e-02  8.2786e-04  6.2146e-04  1.1649e-04  0:02:42 1545
   456  8.5023e-04  1.9254e-03  1.9404e-03  2.3136e-02  8.2199e-04  6.1004e-04  1.1539e-04  0:02:10 1544
   457  8.4487e-04  1.9053e-03  1.9149e-03  2.3031e-02  8.1689e-04  5.9880e-04  1.1423e-04  0:06:52 1543
   458  8.4027e-04  1.8840e-03  1.8895e-03  2.2924e-02  8.1255e-04  5.8842e-04  1.1265e-04  0:05:30 1542
   459  8.3641e-04  1.8616e-03  1.8645e-03  2.2812e-02  8.0893e-04  5.7803e-04  1.1178e-04  0:04:24 1541
   460  8.3326e-04  1.8382e-03  1.8398e-03  2.2699e-02  8.0601e-04  5.6738e-04  1.1100e-04  0:03:31 1540
   461  8.3078e-04  1.8140e-03  1.8157e-03  2.2586e-02  8.0375e-04  5.5690e-04  1.1013e-04  0:02:49 1539
   462  8.2894e-04  1.7892e-03  1.7922e-03  2.2456e-02  8.0212e-04  5.4730e-04  1.0920e-04  0:02:15 1538

  iter  continuity  x-velocity  y-velocity  z-velocity      energy           k       omega     time/iter
   463  8.2770e-04  1.7638e-03  1.7695e-03  2.2302e-02  8.0108e-04  5.3868e-04  1.0794e-04  0:01:48 1537
   464  8.2704e-04  1.7381e-03  1.7478e-03  2.2130e-02  8.0060e-04  5.3114e-04  1.0676e-04  0:06:33 1536
   465  8.2690e-04  1.7122e-03  1.7270e-03  2.1944e-02  8.0062e-04  5.2348e-04  1.0548e-04  0:05:14 1535
   466  8.2721e-04  1.6863e-03  1.7072e-03  2.1743e-02  8.0110e-04  5.1544e-04  1.0411e-04  0:04:11 1534
   467  8.2794e-04  1.6605e-03  1.6886e-03  2.1528e-02  8.0196e-04  5.0733e-04  1.0275e-04  0:03:21 1533
   468  8.2901e-04  1.6350e-03  1.6713e-03  2.1300e-02  8.0317e-04  5.0006e-04  1.0146e-04  0:02:41 1532
   469  8.3038e-04  1.6099e-03  1.6552e-03  2.1060e-02  8.0466e-04  4.9306e-04  1.0016e-04  0:02:08 1531
   470  8.3199e-04  1.5854e-03  1.6403e-03  2.0805e-02  8.0638e-04  4.8600e-04  9.8857e-05  0:01:43 1530
   471  8.3378e-04  1.5616e-03  1.6268e-03  2.0540e-02  8.0826e-04  4.7905e-04  9.7594e-05  0:06:28 1529
   472  8.3568e-04  1.5386e-03  1.6146e-03  2.0260e-02  8.1026e-04  4.7201e-04  9.6163e-05  0:05:10 1528
   473  8.3764e-04  1.5165e-03  1.6038e-03  1.9971e-02  8.1229e-04  4.6491e-04  9.4757e-05  0:04:08 1527

  iter  continuity  x-velocity  y-velocity  z-velocity      energy           k       omega     time/iter
   474  8.3958e-04  1.4955e-03  1.5943e-03  1.9666e-02  8.1429e-04  4.5810e-04  9.3294e-05  0:03:18 1526
   475  8.4142e-04  1.4756e-03  1.5861e-03  1.9349e-02  8.1619e-04  4.5189e-04  9.1801e-05  0:02:38 1525
   476  8.4312e-04  1.4570e-03  1.5791e-03  1.9027e-02  8.1794e-04  4.4619e-04  9.0310e-05  0:02:07 1524
   477  8.4462e-04  1.4396e-03  1.5734e-03  1.8701e-02  8.1949e-04  4.4049e-04  8.8802e-05  0:06:46 1523
   478  8.4587e-04  1.4234e-03  1.5688e-03  1.8368e-02  8.2077e-04  4.3485e-04  8.7292e-05  0:05:24 1522
   479  8.4681e-04  1.4086e-03  1.5653e-03  1.8035e-02  8.2174e-04  4.2914e-04  8.5712e-05  0:04:19 1521
   480  8.4738e-04  1.3952e-03  1.5628e-03  1.7698e-02  8.2234e-04  4.2345e-04  8.4007e-05  0:03:27 1520
   481  8.4752e-04  1.3831e-03  1.5612e-03  1.7362e-02  8.2251e-04  4.1786e-04  8.2363e-05  0:02:46 1519
   482  8.4719e-04  1.3723e-03  1.5605e-03  1.7161e-02  8.2219e-04  4.1261e-04  8.0783e-05  0:02:13 1518
   483  8.4632e-04  1.3628e-03  1.5605e-03  1.6877e-02  8.2134e-04  4.0783e-04  7.9258e-05  0:01:46 1517
   484  8.4488e-04  1.3548e-03  1.5612e-03  1.6533e-02  8.1991e-04  4.0342e-04  7.7752e-05  0:06:28 1516

  iter  continuity  x-velocity  y-velocity  z-velocity      energy           k       omega     time/iter
   485  8.4283e-04  1.3480e-03  1.5625e-03  1.6153e-02  8.1787e-04  3.9835e-04  7.6373e-05  0:05:10 1515
   486  8.4013e-04  1.3425e-03  1.5643e-03  1.5784e-02  8.1518e-04  3.9325e-04  7.5184e-05  0:04:08 1514
   487  8.3675e-04  1.3383e-03  1.5666e-03  1.5450e-02  8.1182e-04  3.8813e-04  7.4055e-05  0:03:18 1513
   488  8.3271e-04  1.3353e-03  1.5691e-03  1.5161e-02  8.0779e-04  3.8301e-04  7.2937e-05  0:02:38 1512
   489  8.2798e-04  1.3336e-03  1.5719e-03  1.4916e-02  8.0309e-04  3.7790e-04  7.1814e-05  0:02:07 1511
   490  8.2259e-04  1.3331e-03  1.5748e-03  1.4709e-02  7.9772e-04  3.7274e-04  7.0793e-05  0:06:43 1510
   491  8.1655e-04  1.3337e-03  1.5776e-03  1.4532e-02  7.9170e-04  3.6781e-04  6.9820e-05  0:05:22 1509
   492  8.0987e-04  1.3353e-03  1.5804e-03  1.4377e-02  7.8505e-04  3.6303e-04  6.8978e-05  0:04:18 1508
   493  8.0258e-04  1.3379e-03  1.5829e-03  1.4227e-02  7.7780e-04  3.5857e-04  6.8215e-05  0:03:26 1507
   494  7.9472e-04  1.3415e-03  1.5851e-03  1.4097e-02  7.6999e-04  3.5460e-04  6.7586e-05  0:02:45 1506
   495  7.8633e-04  1.3459e-03  1.5868e-03  1.3983e-02  7.6165e-04  3.5104e-04  6.6924e-05  0:02:12 1505

  iter  continuity  x-velocity  y-velocity  z-velocity      energy           k       omega     time/iter
   496  7.7745e-04  1.3510e-03  1.5881e-03  1.3884e-02  7.5283e-04  3.4750e-04  6.6414e-05  0:06:46 1504
   497  7.6811e-04  1.3568e-03  1.5887e-03  1.3778e-02  7.4357e-04  3.4385e-04  6.6053e-05  0:05:25 1503
   498  7.5838e-04  1.3630e-03  1.5886e-03  1.3514e-02  7.3391e-04  3.4015e-04  6.5750e-05  0:04:20 1502
   499  7.4830e-04  1.3697e-03  1.5877e-03  1.3338e-02  7.2392e-04  3.3654e-04  6.5408e-05  0:03:28 1501
   500  7.3792e-04  1.3766e-03  1.5859e-03  1.3223e-02  7.1364e-04  3.3293e-04  6.5116e-05  0:02:46 1500
   501  7.2730e-04  1.3837e-03  1.5833e-03  1.3137e-02  7.0314e-04  3.2939e-04  6.4931e-05  0:02:13 1499
   502  7.1650e-04  1.3908e-03  1.5797e-03  1.3055e-02  6.9246e-04  3.2618e-04  6.4899e-05  0:01:46 1498
   503  7.0557e-04  1.3978e-03  1.5751e-03  1.2956e-02  6.8167e-04  3.2323e-04  6.4849e-05  0:06:24 1497
   504  6.9464e-04  1.4052e-03  1.5693e-03  1.2829e-02  6.7087e-04  3.2049e-04  6.4694e-05  0:05:07 1496
   505  6.8369e-04  1.4121e-03  1.5625e-03  1.2677e-02  6.6008e-04  3.1786e-04  6.4697e-05  0:04:06 1495
   506  6.7276e-04  1.4181e-03  1.5549e-03  1.2507e-02  6.4932e-04  3.1550e-04  6.4795e-05  0:03:16 1494

  iter  continuity  x-velocity  y-velocity  z-velocity      energy           k       omega     time/iter
   507  6.6192e-04  1.4235e-03  1.5464e-03  1.2328e-02  6.3865e-04  3.1329e-04  6.4856e-05  0:02:37 1493
   508  6.5121e-04  1.4282e-03  1.5368e-03  1.2143e-02  6.2813e-04  3.1126e-04  6.4964e-05  0:02:05 1492
   509  6.4068e-04  1.4322e-03  1.5262e-03  1.1961e-02  6.1780e-04  3.0948e-04  6.5139e-05  0:01:40 1491
   510  6.3039e-04  1.4353e-03  1.5146e-03  1.1783e-02  6.0771e-04  3.0799e-04  6.5306e-05  0:06:18 1490
   511  6.2036e-04  1.4375e-03  1.5021e-03  1.1613e-02  5.9789e-04  3.0682e-04  6.5468e-05  0:05:02 1489
   512  6.1064e-04  1.4387e-03  1.4887e-03  1.1447e-02  5.8840e-04  3.0598e-04  6.5568e-05  0:04:02 1488
   513  6.0128e-04  1.4388e-03  1.4745e-03  1.1286e-02  5.7926e-04  3.0556e-04  6.5812e-05  0:03:13 1487
   514  5.9228e-04  1.4378e-03  1.4594e-03  1.1130e-02  5.7051e-04  3.0555e-04  6.6152e-05  0:02:34 1486
   515  5.8369e-04  1.4356e-03  1.4436e-03  1.0977e-02  5.6216e-04  3.0558e-04  6.6466e-05  0:07:01 1485
   516  5.7552e-04  1.4322e-03  1.4272e-03  1.0829e-02  5.5423e-04  3.0561e-04  6.6813e-05  0:05:36 1484
   517  5.6779e-04  1.4277e-03  1.4101e-03  1.0686e-02  5.4675e-04  3.0578e-04  6.7082e-05  0:04:29 1483

  iter  continuity  x-velocity  y-velocity  z-velocity      energy           k       omega     time/iter
   518  5.6050e-04  1.4219e-03  1.3924e-03  1.0547e-02  5.3972e-04  3.0609e-04  6.7280e-05  0:03:35 1482
   519  5.5368e-04  1.4150e-03  1.3743e-03  1.0419e-02  5.3315e-04  3.0635e-04  6.7632e-05  0:02:52 1481
   520  5.4732e-04  1.4070e-03  1.3558e-03  1.0334e-02  5.2704e-04  3.0660e-04  6.7918e-05  0:02:17 1480
   521  5.4141e-04  1.3979e-03  1.3370e-03  1.0233e-02  5.2138e-04  3.0692e-04  6.8105e-05  0:06:46 1479
   522  5.3597e-04  1.3878e-03  1.3180e-03  1.0136e-02  5.1619e-04  3.0726e-04  6.8291e-05  0:05:24 1478
   523  5.3099e-04  1.3767e-03  1.2988e-03  1.0041e-02  5.1145e-04  3.0758e-04  6.8523e-05  0:04:19 1477
   524  5.2647e-04  1.3646e-03  1.2796e-03  9.9475e-03  5.0718e-04  3.0787e-04  6.8694e-05  0:03:27 1476
   525  5.2240e-04  1.3517e-03  1.2604e-03  9.8584e-03  5.0335e-04  3.0813e-04  6.8882e-05  0:02:46 1475
   526  5.1878e-04  1.3380e-03  1.2413e-03  9.7745e-03  4.9996e-04  3.0844e-04  6.9026e-05  0:02:12 1474
   527  5.1556e-04  1.3236e-03  1.2225e-03  9.6973e-03  4.9697e-04  3.0870e-04  6.9131e-05  0:06:40 1473
   528  5.1275e-04  1.3086e-03  1.2038e-03  9.6273e-03  4.9438e-04  3.0897e-04  6.9228e-05  0:05:20 1472

  iter  continuity  x-velocity  y-velocity  z-velocity      energy           k       omega     time/iter
   529  5.1031e-04  1.2930e-03  1.1856e-03  9.5671e-03  4.9215e-04  3.0925e-04  6.9304e-05  0:04:16 1471
   530  5.0821e-04  1.2771e-03  1.1677e-03  9.5155e-03  4.9027e-04  3.0948e-04  6.9335e-05  0:03:25 1470
   531  5.0644e-04  1.2609e-03  1.1504e-03  9.4725e-03  4.8869e-04  3.0985e-04  6.9306e-05  0:02:44 1469
   532  5.0496e-04  1.2444e-03  1.1336e-03  9.4366e-03  4.8740e-04  3.1030e-04  6.9227e-05  0:02:11 1468
   533  5.0375e-04  1.2278e-03  1.1175e-03  9.4059e-03  4.8637e-04  3.1083e-04  6.9160e-05  0:06:38 1467
   534  5.0278e-04  1.2113e-03  1.1021e-03  9.3798e-03  4.8557e-04  3.1148e-04  6.9082e-05  0:05:18 1466
   535  5.0201e-04  1.1948e-03  1.0874e-03  9.3576e-03  4.8497e-04  3.1214e-04  6.9035e-05  0:04:14 1465
   536  5.0144e-04  1.1784e-03  1.0735e-03  9.3385e-03  4.8455e-04  3.1271e-04  6.8959e-05  0:03:23 1464
   537  5.0101e-04  1.1624e-03  1.0604e-03  9.3351e-03  4.8428e-04  3.1358e-04  6.8949e-05  0:02:43 1463
   538  5.0073e-04  1.1466e-03  1.0482e-03  9.3274e-03  4.8413e-04  3.1419e-04  6.8969e-05  0:02:10 1462
   539  5.0055e-04  1.1314e-03  1.0367e-03  9.3165e-03  4.8409e-04  3.1452e-04  6.9038e-05  0:06:36 1461

  iter  continuity  x-velocity  y-velocity  z-velocity      energy           k       omega     time/iter
   540  5.0045e-04  1.1165e-03  1.0261e-03  9.3082e-03  4.8411e-04  3.1480e-04  6.9105e-05  0:05:17 1460
   541  5.0040e-04  1.1023e-03  1.0162e-03  9.3043e-03  4.8418e-04  3.1508e-04  6.9191e-05  0:04:13 1459
   542  5.0037e-04  1.0886e-03  1.0072e-03  9.3041e-03  4.8427e-04  3.1541e-04  6.9279e-05  0:03:22 1458
   543  5.0035e-04  1.0756e-03  9.9891e-04  9.2885e-03  4.8436e-04  3.1581e-04  6.9475e-05  0:02:42 1457
   544  5.0029e-04  1.0632e-03  9.9136e-04  9.2693e-03  4.8440e-04  3.1585e-04  6.9654e-05  0:02:09 1456
   545  5.0019e-04  1.0516e-03  9.8451e-04  9.2467e-03  4.8439e-04  3.1610e-04  6.9775e-05  0:06:34 1455
   546  4.9999e-04  1.0406e-03  9.7834e-04  9.2239e-03  4.8429e-04  3.1664e-04  6.9933e-05  0:05:15 1454
   547  4.9971e-04  1.0309e-03  9.7272e-04  9.2010e-03  4.8409e-04  3.1707e-04  7.0122e-05  0:04:12 1453
   548  4.9928e-04  1.0217e-03  9.6777e-04  9.1783e-03  4.8375e-04  3.1738e-04  7.0282e-05  0:03:22 1452
   549  4.9871e-04  1.0130e-03  9.6342e-04  9.1551e-03  4.8326e-04  3.1751e-04  7.0508e-05  0:02:41 1451
   550  4.9797e-04  1.0050e-03  9.5961e-04  9.1308e-03  4.8259e-04  3.1766e-04  7.0853e-05  0:02:09 1450

  iter  continuity  x-velocity  y-velocity  z-velocity      energy           k       omega     time/iter
   551  4.9705e-04  9.9769e-04  9.5629e-04  9.1042e-03  4.8174e-04  3.1782e-04  7.1216e-05  0:01:43 1449
   552  4.9593e-04  9.9108e-04  9.5340e-04  9.0736e-03  4.8069e-04  3.1874e-04  7.1589e-05  0:06:12 1448
   553  4.9461e-04  9.8515e-04  9.5090e-04  9.0374e-03  4.7944e-04  3.1954e-04  7.1964e-05  0:04:57 1447
   554  4.9308e-04  9.7989e-04  9.4874e-04  8.9955e-03  4.7798e-04  3.1996e-04  7.2364e-05  0:03:58 1446
   555  4.9134e-04  9.7525e-04  9.4686e-04  8.9475e-03  4.7630e-04  3.2025e-04  7.2865e-05  0:03:10 1445
   556  4.8939e-04  9.7120e-04  9.4519e-04  8.8957e-03  4.7442e-04  3.2029e-04  7.3392e-05  0:02:32 1444
   557  4.8724e-04  9.6771e-04  9.4371e-04  8.8393e-03  4.7234e-04  3.2013e-04  7.3887e-05  0:02:01 1443
   558  4.8490e-04  9.6474e-04  9.4234e-04  8.7791e-03  4.7006e-04  3.1990e-04  7.4327e-05  0:01:37 1442
   559  4.8237e-04  9.6226e-04  9.4105e-04  8.7147e-03  4.6759e-04  3.1981e-04  7.4758e-05  0:06:06 1441
   560  4.7967e-04  9.6024e-04  9.3978e-04  8.6481e-03  4.6496e-04  3.1984e-04  7.5259e-05  0:04:52 1440
   561  4.7682e-04  9.5861e-04  9.3849e-04  8.5786e-03  4.6217e-04  3.1998e-04  7.5719e-05  0:03:54 1439

  iter  continuity  x-velocity  y-velocity  z-velocity      energy           k       omega     time/iter
   562  4.7383e-04  9.5734e-04  9.3713e-04  8.5065e-03  4.5925e-04  3.2027e-04  7.6107e-05  0:03:07 1438
   563  4.7071e-04  9.5637e-04  9.3566e-04  8.4319e-03  4.5621e-04  3.2072e-04  7.6441e-05  0:02:29 1437
   564  4.6750e-04  9.5567e-04  9.3405e-04  8.3567e-03  4.5307e-04  3.2158e-04  7.6796e-05  0:01:59 1436
   565  4.6420e-04  9.5517e-04  9.3227e-04  8.2820e-03  4.4984e-04  3.2291e-04  7.7175e-05  0:06:22 1435
   566  4.6082e-04  9.5483e-04  9.3029e-04  8.2082e-03  4.4655e-04  3.2445e-04  7.7595e-05  0:05:06 1434
   567  4.5740e-04  9.5461e-04  9.2807e-04  8.1357e-03  4.4320e-04  3.2615e-04  7.7963e-05  0:04:04 1433
   568  4.5396e-04  9.5447e-04  9.2560e-04  8.0651e-03  4.3984e-04  3.2823e-04  7.8296e-05  0:03:15 1432
   569  4.5051e-04  9.5436e-04  9.2287e-04  7.9974e-03  4.3648e-04  3.3055e-04  7.8598e-05  0:02:36 1431
   570  4.4708e-04  9.5422e-04  9.1985e-04  7.9348e-03  4.3313e-04  3.3307e-04  7.8909e-05  0:02:05 1430
   571  4.4368e-04  9.5401e-04  9.1654e-04  7.8768e-03  4.2983e-04  3.3567e-04  7.9020e-05  0:06:26 1429
   572  4.4034e-04  9.5368e-04  9.1292e-04  7.8237e-03  4.2658e-04  3.3835e-04  7.9232e-05  0:05:08 1428

  iter  continuity  x-velocity  y-velocity  z-velocity      energy           k       omega     time/iter
   573  4.3707e-04  9.5320e-04  9.0899e-04  7.7739e-03  4.2340e-04  3.4112e-04  7.9340e-05  0:04:06 1427
   574  4.3388e-04  9.5252e-04  9.0474e-04  7.7299e-03  4.2031e-04  3.4394e-04  7.9552e-05  0:03:17 1426
   575  4.3078e-04  9.5161e-04  9.0018e-04  7.6918e-03  4.1731e-04  3.4660e-04  7.9845e-05  0:02:38 1425
   576  4.2780e-04  9.5043e-04  8.9531e-04  7.6578e-03  4.1442e-04  3.4932e-04  8.0029e-05  0:02:06 1424
   577  4.2494e-04  9.4896e-04  8.9015e-04  7.6255e-03  4.1166e-04  3.5258e-04  8.0248e-05  0:06:25 1423
   578  4.2221e-04  9.4717e-04  8.8472e-04  7.5958e-03  4.0903e-04  3.5608e-04  8.0438e-05  0:05:08 1422
   579  4.1962e-04  9.4505e-04  8.7904e-04  7.5686e-03  4.0654e-04  3.5999e-04  8.0633e-05  0:04:06 1421
   580  4.1719e-04  9.4258e-04  8.7313e-04  7.5419e-03  4.0421e-04  3.6430e-04  8.0902e-05  0:03:17 1420
   581  4.1493e-04  9.3977e-04  8.6704e-04  7.5149e-03  4.0205e-04  3.6810e-04  8.1187e-05  0:02:37 1419
   582  4.1284e-04  9.3661e-04  8.6078e-04  7.4862e-03  4.0006e-04  3.7180e-04  8.1621e-05  0:02:06 1418
   583  4.1094e-04  9.3311e-04  8.5439e-04  7.4778e-03  3.9825e-04  3.7512e-04  8.2010e-05  0:01:41 1417

  iter  continuity  x-velocity  y-velocity  z-velocity      energy           k       omega     time/iter
   584  4.0923e-04  9.2928e-04  8.4791e-04  7.4707e-03  3.9664e-04  3.7820e-04  8.2422e-05  0:06:04 1416
   585  4.0772e-04  9.2513e-04  8.4136e-04  7.4581e-03  3.9522e-04  3.8104e-04  8.2790e-05  0:04:51 1415
   586  4.0641e-04  9.2068e-04  8.3477e-04  7.4409e-03  3.9400e-04  3.8372e-04  8.3123e-05  0:03:52 1414
   587  4.0532e-04  9.1593e-04  8.2817e-04  7.4211e-03  3.9299e-04  3.8638e-04  8.3504e-05  0:03:06 1413
   588  4.0443e-04  9.1092e-04  8.2159e-04  7.3982e-03  3.9219e-04  3.8928e-04  8.3839e-05  0:02:29 1412
   589  4.0374e-04  9.0565e-04  8.1505e-04  7.3730e-03  3.9158e-04  3.9209e-04  8.4175e-05  0:01:59 1411
   590  4.0326e-04  9.0017e-04  8.0859e-04  7.3419e-03  3.9118e-04  3.9443e-04  8.4507e-05  0:06:17 1410
   591  4.0297e-04  8.9449e-04  8.0223e-04  7.3068e-03  3.9097e-04  3.9706e-04  8.4862e-05  0:05:01 1409
   592  4.0286e-04  8.8863e-04  7.9600e-04  7.2723e-03  3.9093e-04  3.9883e-04  8.5196e-05  0:04:01 1408
   593  4.0293e-04  8.8264e-04  7.8994e-04  7.2411e-03  3.9107e-04  4.0100e-04  8.5443e-05  0:03:13 1407
   594  4.0316e-04  8.7654e-04  7.8406e-04  7.2019e-03  3.9136e-04  4.0299e-04  8.5611e-05  0:02:34 1406

  iter  continuity  x-velocity  y-velocity  z-velocity      energy           k       omega     time/iter
   595  4.0353e-04  8.7036e-04  7.7840e-04  7.1812e-03  3.9179e-04  4.0456e-04  8.5723e-05  0:02:03 1405
   596  4.0404e-04  8.6415e-04  7.7298e-04  7.1765e-03  3.9236e-04  4.0619e-04  8.5817e-05  0:01:38 1404
   597  4.0467e-04  8.5792e-04  7.6784e-04  7.1898e-03  3.9304e-04  4.0803e-04  8.5990e-05  0:05:59 1403
   598  4.0541e-04  8.5172e-04  7.6300e-04  7.2235e-03  3.9382e-04  4.0985e-04  8.6182e-05  0:04:47 1402
   599  4.0625e-04  8.4558e-04  7.5849e-04  7.2847e-03  3.9470e-04  4.1161e-04  8.6442e-05  0:03:50 1401
   600  4.0716e-04  8.3952e-04  7.5431e-04  7.3739e-03  3.9565e-04  4.1337e-04  8.6667e-05  0:03:04 1400
   601  4.0815e-04  8.3358e-04  7.5050e-04  7.4764e-03  3.9667e-04  4.1496e-04  8.6884e-05  0:02:27 1399
   602  4.0919e-04  8.2780e-04  7.4705e-04  7.5871e-03  3.9774e-04  4.1647e-04  8.7113e-05  0:01:57 1398
   603  4.1027e-04  8.2219e-04  7.4399e-04  7.7057e-03  3.9885e-04  4.1804e-04  8.7364e-05  0:01:34 1397
   604  4.1139e-04  8.1678e-04  7.4130e-04  7.8389e-03  3.9999e-04  4.1970e-04  8.7560e-05  0:05:54 1396
   605  4.1254e-04  8.1161e-04  7.3900e-04  7.9910e-03  4.0115e-04  4.2115e-04  8.7971e-05  0:04:43 1395

  iter  continuity  x-velocity  y-velocity  z-velocity      energy           k       omega     time/iter
   606  4.1370e-04  8.0668e-04  7.3708e-04  8.1681e-03  4.0232e-04  4.2273e-04  8.8074e-05  0:03:46 1394
   607  4.1488e-04  8.0202e-04  7.3552e-04  8.3671e-03  4.0351e-04  4.2437e-04  8.8136e-05  0:03:01 1393
   608  4.1605e-04  7.9764e-04  7.3433e-04  8.5848e-03  4.0470e-04  4.2577e-04  8.8196e-05  0:02:25 1392
   609  4.1723e-04  7.9355e-04  7.3347e-04  8.8226e-03  4.0588e-04  4.2712e-04  8.8204e-05  0:01:56 1391
   610  4.1839e-04  7.8975e-04  7.3294e-04  9.0721e-03  4.0705e-04  4.2850e-04  8.8180e-05  0:06:10 1390
   611  4.1953e-04  7.8623e-04  7.3271e-04  9.3185e-03  4.0818e-04  4.2993e-04  8.8213e-05  0:04:56 1389
   612  4.2062e-04  7.8300e-04  7.3277e-04  9.5454e-03  4.0928e-04  4.3137e-04  8.8234e-05  0:03:57 1388
   613  4.2166e-04  7.8005e-04  7.3310e-04  9.7432e-03  4.1032e-04  4.3279e-04  8.8238e-05  0:03:09 1387
   614  4.2264e-04  7.7739e-04  7.3368e-04  9.9063e-03  4.1129e-04  4.3416e-04  8.8252e-05  0:02:31 1386
   615  4.2354e-04  7.7500e-04  7.3449e-04  1.0032e-02  4.1219e-04  4.3553e-04  8.8309e-05  0:02:01 1385
   616  4.2435e-04  7.7288e-04  7.3552e-04  1.0108e-02  4.1300e-04  4.3665e-04  8.8608e-05  0:06:13 1384

  iter  continuity  x-velocity  y-velocity  z-velocity      energy           k       omega     time/iter
   617  4.2508e-04  7.7104e-04  7.3676e-04  1.0154e-02  4.1371e-04  4.3745e-04  8.8862e-05  0:04:59 1383
   618  4.2570e-04  7.6947e-04  7.3819e-04  1.0184e-02  4.1433e-04  4.3808e-04  8.9073e-05  0:03:59 1382
   619  4.2622e-04  7.6816e-04  7.3978e-04  1.0235e-02  4.1485e-04  4.3852e-04  8.9285e-05  0:03:11 1381
   620  4.2663e-04  7.6711e-04  7.4151e-04  1.0291e-02  4.1525e-04  4.3928e-04  8.9399e-05  0:02:33 1380
   621  4.2693e-04  7.6631e-04  7.4337e-04  1.0325e-02  4.1555e-04  4.3998e-04  8.9770e-05  0:02:02 1379
   622  4.2713e-04  7.6575e-04  7.4532e-04  1.0323e-02  4.1573e-04  4.3980e-04  8.9930e-05  0:06:13 1378
   623  4.2721e-04  7.6542e-04  7.4732e-04  1.0291e-02  4.1581e-04  4.3948e-04  9.0042e-05  0:04:58 1377
   624  4.2718e-04  7.6529e-04  7.4936e-04  1.0236e-02  4.1577e-04  4.3959e-04  9.0134e-05  0:03:58 1376
[...]
  1838  8.1894e-06  1.7443e-05  1.8613e-05  8.3185e-01  7.8889e-06  4.7392e-06  1.3129e-06  0:00:43  162
  1839  8.1604e-06  1.7376e-05  1.8538e-05  8.3878e-01  7.8612e-06  4.7254e-06  1.3091e-06  0:00:34  161
  1840  8.1318e-06  1.7310e-05  1.8463e-05  8.4576e-01  7.8338e-06  4.7117e-06  1.3054e-06  0:00:27  160
  1841  8.1033e-06  1.7244e-05  1.8388e-05  8.5281e-01  7.8066e-06  4.6982e-06  1.3017e-06  0:00:22  159
  1842  8.0751e-06  1.7178e-05  1.8315e-05  8.5991e-01  7.7796e-06  4.6848e-06  1.2980e-06  0:00:17  158
  1843  8.0471e-06  1.7112e-05  1.8241e-05  8.6708e-01  7.7528e-06  4.6715e-06  1.2943e-06  0:00:14  157
  1844  8.0193e-06  1.7046e-05  1.8169e-05  8.7431e-01  7.7262e-06  4.6583e-06  1.2907e-06  0:00:11  156
  1845  7.9917e-06  1.6981e-05  1.8097e-05  8.8161e-01  7.6999e-06  4.6453e-06  1.2871e-06  0:00:40  155
  1846  7.9644e-06  1.6916e-05  1.8025e-05  8.8897e-01  7.6737e-06  4.6323e-06  1.2835e-06  0:00:32  154
  1847  7.9372e-06  1.6852e-05  1.7954e-05  8.9640e-01  7.6478e-06  4.6194e-06  1.2799e-06  0:00:25  153
  1848  7.9103e-06  1.6788e-05  1.7884e-05  9.0389e-01  7.6220e-06  4.6067e-06  1.2764e-06  0:00:20  152

  iter  continuity  x-velocity  y-velocity  z-velocity      energy           k       omega     time/iter
  1849  7.8835e-06  1.6724e-05  1.7814e-05  9.1145e-01  7.5964e-06  4.5941e-06  1.2727e-06  0:00:16  151
  1850  7.8570e-06  1.6660e-05  1.7745e-05  9.1908e-01  7.5710e-06  4.5816e-06  1.2691e-06  0:00:13  150
  1851  7.8306e-06  1.6597e-05  1.7676e-05  9.2678e-01  7.5458e-06  4.5693e-06  1.2656e-06  0:00:40  149
  1852  7.8044e-06  1.6535e-05  1.7608e-05  9.3454e-01  7.5207e-06  4.5570e-06  1.2621e-06  0:00:32  148
  1853  7.7783e-06  1.6472e-05  1.7541e-05  9.4238e-01  7.4958e-06  4.5449e-06  1.2586e-06  0:00:25  147
  1854  7.7525e-06  1.6411e-05  1.7474e-05  9.5028e-01  7.4710e-06  4.5328e-06  1.2552e-06  0:00:20  146
  1855  7.7267e-06  1.6349e-05  1.7407e-05  9.5826e-01  7.4464e-06  4.5208e-06  1.2518e-06  0:00:16  145
  1856  7.7012e-06  1.6289e-05  1.7342e-05  9.6630e-01  7.4220e-06  4.5090e-06  1.2484e-06  0:00:13  144
  1857  7.6758e-06  1.6228e-05  1.7277e-05  9.7442e-01  7.3976e-06  4.4972e-06  1.2450e-06  0:00:10  143
  1858  7.6505e-06  1.6168e-05  1.7212e-05  9.8260e-01  7.3735e-06  4.4855e-06  1.2416e-06  0:00:36  142
  1859  7.6253e-06  1.6109e-05  1.7148e-05  9.9084e-01  7.3494e-06  4.4739e-06  1.2383e-06  0:00:29  141

  iter  continuity  x-velocity  y-velocity  z-velocity      energy           k       omega     time/iter
  1860  7.6003e-06  1.6050e-05  1.7085e-05  9.9914e-01  7.3254e-06  4.4624e-06  1.2350e-06  0:00:23  140
  1861  7.5754e-06  1.5992e-05  1.7022e-05  1.0075e+00  7.3016e-06  4.4509e-06  1.2317e-06  0:00:18  139
  1862  7.5506e-06  1.5934e-05  1.6959e-05  1.0159e+00  7.2779e-06  4.4395e-06  1.2284e-06  0:00:14  138
  1863  7.5260e-06  1.5876e-05  1.6897e-05  1.0244e+00  7.2543e-06  4.4282e-06  1.2251e-06  0:00:39  137
  1864  7.5014e-06  1.5819e-05  1.6836e-05  1.0330e+00  7.2308e-06  4.4170e-06  1.2219e-06  0:00:31  136
  1865  7.4770e-06  1.5763e-05  1.6775e-05  1.0416e+00  7.2074e-06  4.4058e-06  1.2187e-06  0:00:25  135
  1866  7.4527e-06  1.5707e-05  1.6714e-05  1.0503e+00  7.1842e-06  4.3948e-06  1.2155e-06  0:00:19  134
  1867  7.4285e-06  1.5652e-05  1.6654e-05  1.0591e+00  7.1610e-06  4.3838e-06  1.2124e-06  0:00:15  133
  1868  7.4044e-06  1.5597e-05  1.6595e-05  1.0679e+00  7.1379e-06  4.3730e-06  1.2092e-06  0:00:12  132
  1869  7.3805e-06  1.5542e-05  1.6536e-05  1.0768e+00  7.1150e-06  4.3622e-06  1.2061e-06  0:00:10  131
  1870  7.3567e-06  1.5488e-05  1.6477e-05  1.0858e+00  7.0922e-06  4.3516e-06  1.2030e-06  0:00:34  130

  iter  continuity  x-velocity  y-velocity  z-velocity      energy           k       omega     time/iter
  1871  7.3330e-06  1.5434e-05  1.6418e-05  1.0948e+00  7.0695e-06  4.3411e-06  1.1999e-06  0:00:27  129
  1872  7.3094e-06  1.5381e-05  1.6360e-05  1.1039e+00  7.0469e-06  4.3307e-06  1.1968e-06  0:00:21  128
  1873  7.2860e-06  1.5328e-05  1.6303e-05  1.1131e+00  7.0245e-06  4.3204e-06  1.1938e-06  0:00:17  127
  1874  7.2626e-06  1.5276e-05  1.6245e-05  1.1224e+00  7.0021e-06  4.3102e-06  1.1908e-06  0:00:13  126
  1875  7.2394e-06  1.5224e-05  1.6188e-05  1.1317e+00  6.9799e-06  4.3000e-06  1.1878e-06  0:00:11  125
  1876  7.2164e-06  1.5172e-05  1.6131e-05  1.1411e+00  6.9578e-06  4.2899e-06  1.1848e-06  0:00:33  124
  1877  7.1935e-06  1.5120e-05  1.6075e-05  1.1506e+00  6.9359e-06  4.2799e-06  1.1819e-06  0:00:26  123
  1878  7.1707e-06  1.5069e-05  1.6019e-05  1.1601e+00  6.9141e-06  4.2700e-06  1.1789e-06  0:00:21  122
  1879  7.1481e-06  1.5019e-05  1.5963e-05  1.1697e+00  6.8924e-06  4.2602e-06  1.1760e-06  0:00:17  121
  1880  7.1256e-06  1.4968e-05  1.5907e-05  1.1793e+00  6.8709e-06  4.2505e-06  1.1731e-06  0:00:13  120
  1881  7.1033e-06  1.4918e-05  1.5852e-05  1.1891e+00  6.8496e-06  4.2409e-06  1.1702e-06  0:00:10  119

  iter  continuity  x-velocity  y-velocity  z-velocity      energy           k       omega     time/iter
  1882  7.0812e-06  1.4868e-05  1.5797e-05  1.1989e+00  6.8284e-06  4.2313e-06  1.1673e-06  0:00:08  118
  1883  7.0592e-06  1.4818e-05  1.5742e-05  1.2088e+00  6.8074e-06  4.2218e-06  1.1645e-06  0:00:30  117
  1884  7.0374e-06  1.4769e-05  1.5688e-05  1.2188e+00  6.7865e-06  4.2125e-06  1.1617e-06  0:00:24  116
  1885  7.0157e-06  1.4720e-05  1.5633e-05  1.2288e+00  6.7657e-06  4.2031e-06  1.1589e-06  0:00:19  115
  1886  6.9942e-06  1.4671e-05  1.5579e-05  1.2389e+00  6.7452e-06  4.1939e-06  1.1560e-06  0:00:15  114
  1887  6.9729e-06  1.4622e-05  1.5526e-05  1.2491e+00  6.7248e-06  4.1848e-06  1.1532e-06  0:00:12  113
  1888  6.9518e-06  1.4573e-05  1.5472e-05  1.2594e+00  6.7045e-06  4.1758e-06  1.1502e-06  0:00:09  112
  1889  6.9308e-06  1.4525e-05  1.5419e-05  1.2698e+00  6.6845e-06  4.1670e-06  1.1473e-06  0:00:07  111
  1890  6.9100e-06  1.4477e-05  1.5366e-05  1.2803e+00  6.6646e-06  4.1584e-06  1.1444e-06  0:00:28  110
  1891  6.8894e-06  1.4429e-05  1.5313e-05  1.2909e+00  6.6449e-06  4.1499e-06  1.1414e-06  0:00:22  109
  1892  6.8690e-06  1.4381e-05  1.5261e-05  1.3015e+00  6.6254e-06  4.1416e-06  1.1383e-06  0:00:18  108

  iter  continuity  x-velocity  y-velocity  z-velocity      energy           k       omega     time/iter
  1893  6.8488e-06  1.4333e-05  1.5209e-05  1.3123e+00  6.6060e-06  4.1335e-06  1.1352e-06  0:00:14  107
  1894  6.8287e-06  1.4286e-05  1.5157e-05  1.3233e+00  6.5868e-06  4.1256e-06  1.1322e-06  0:00:11  106
  1895  6.8088e-06  1.4238e-05  1.5106e-05  1.3343e+00  6.5678e-06  4.1178e-06  1.1293e-06  0:00:09  105
  1896  6.7891e-06  1.4191e-05  1.5054e-05  1.3455e+00  6.5489e-06  4.1102e-06  1.1264e-06  0:00:28  104
  1897  6.7695e-06  1.4144e-05  1.5004e-05  1.3567e+00  6.5302e-06  4.1027e-06  1.1236e-06  0:00:22  103
  1898  6.7501e-06  1.4097e-05  1.4953e-05  1.3682e+00  6.5116e-06  4.0952e-06  1.1209e-06  0:00:17  102
  1899  6.7309e-06  1.4051e-05  1.4903e-05  1.3797e+00  6.4932e-06  4.0878e-06  1.1182e-06  0:00:14  101
  1900  6.7118e-06  1.4004e-05  1.4853e-05  1.3914e+00  6.4750e-06  4.0804e-06  1.1155e-06  0:00:11  100
  1901  6.6929e-06  1.3958e-05  1.4804e-05  1.4032e+00  6.4569e-06  4.0731e-06  1.1129e-06  0:00:09   99
  1902  6.6741e-06  1.3912e-05  1.4755e-05  1.4152e+00  6.4389e-06  4.0657e-06  1.1103e-06  0:00:07   98
  1903  6.6555e-06  1.3867e-05  1.4707e-05  1.4273e+00  6.4211e-06  4.0584e-06  1.1077e-06  0:00:25   97

  iter  continuity  x-velocity  y-velocity  z-velocity      energy           k       omega     time/iter
  1904  6.6370e-06  1.3822e-05  1.4659e-05  1.4396e+00  6.4035e-06  4.0510e-06  1.1051e-06  0:00:20   96
  1905  6.6187e-06  1.3776e-05  1.4611e-05  1.4520e+00  6.3859e-06  4.0437e-06  1.1026e-06  0:00:16   95
  1906  6.6005e-06  1.3732e-05  1.4564e-05  1.4645e+00  6.3685e-06  4.0364e-06  1.1001e-06  0:00:12   94
  1907  6.5825e-06  1.3687e-05  1.4517e-05  1.4772e+00  6.3513e-06  4.0290e-06  1.0976e-06  0:00:10   93
  1908  6.5646e-06  1.3643e-05  1.4471e-05  1.4900e+00  6.3342e-06  4.0216e-06  1.0951e-06  0:00:08   92
  1909  6.5468e-06  1.3599e-05  1.4425e-05  1.5029e+00  6.3171e-06  4.0142e-06  1.0926e-06  0:00:06   91
  1910  6.5291e-06  1.3556e-05  1.4379e-05  1.5160e+00  6.3002e-06  4.0069e-06  1.0901e-06  0:00:05   90
  1911  6.5115e-06  1.3512e-05  1.4334e-05  1.5292e+00  6.2834e-06  3.9996e-06  1.0874e-06  0:00:22   89
  1912  6.4941e-06  1.3470e-05  1.4289e-05  1.5426e+00  6.2667e-06  3.9924e-06  1.0848e-06  0:00:17   88
  1913  6.4768e-06  1.3427e-05  1.4245e-05  1.5560e+00  6.2502e-06  3.9852e-06  1.0822e-06  0:00:14   87
  1914  6.4596e-06  1.3385e-05  1.4201e-05  1.5696e+00  6.2337e-06  3.9781e-06  1.0797e-06  0:00:11   86

  iter  continuity  x-velocity  y-velocity  z-velocity      energy           k       omega     time/iter
  1915  6.4426e-06  1.3343e-05  1.4157e-05  1.5834e+00  6.2174e-06  3.9710e-06  1.0771e-06  0:00:08   85
  1916  6.4256e-06  1.3301e-05  1.4114e-05  1.5972e+00  6.2011e-06  3.9640e-06  1.0746e-06  0:00:07   84
  1917  6.4087e-06  1.3260e-05  1.4071e-05  1.6112e+00  6.1850e-06  3.9570e-06  1.0721e-06  0:00:22   83
  1918  6.3918e-06  1.3219e-05  1.4029e-05  1.6253e+00  6.1688e-06  3.9506e-06  1.0697e-06  0:00:17   82
  1919  6.3751e-06  1.3179e-05  1.3986e-05  1.6396e+00  6.1528e-06  3.9436e-06  1.0674e-06  0:00:14   81
  1920  6.3584e-06  1.3139e-05  1.3945e-05  1.6539e+00  6.1368e-06  3.9361e-06  1.0652e-06  0:00:11   80
  1921  6.3418e-06  1.3099e-05  1.3903e-05  1.6684e+00  6.1209e-06  3.9287e-06  1.0629e-06  0:00:09   79
  1922  6.3252e-06  1.3059e-05  1.3862e-05  1.6831e+00  6.1050e-06  3.9211e-06  1.0607e-06  0:00:07   78
  1923  6.3086e-06  1.3020e-05  1.3822e-05  1.6978e+00  6.0891e-06  3.9132e-06  1.0584e-06  0:00:05   77
  1924  6.2922e-06  1.2981e-05  1.3781e-05  1.7127e+00  6.0733e-06  3.9055e-06  1.0560e-06  0:00:19   76
  1925  6.2757e-06  1.2943e-05  1.3741e-05  1.7277e+00  6.0576e-06  3.8980e-06  1.0536e-06  0:00:15   75

  iter  continuity  x-velocity  y-velocity  z-velocity      energy           k       omega     time/iter
  1926  6.2593e-06  1.2905e-05  1.3702e-05  1.7429e+00  6.0418e-06  3.8906e-06  1.0512e-06  0:00:12   74
  1927  6.2429e-06  1.2867e-05  1.3663e-05  1.7582e+00  6.0261e-06  3.8832e-06  1.0491e-06  0:00:10   73
  1928  6.2266e-06  1.2830e-05  1.3624e-05  1.7736e+00  6.0105e-06  3.8758e-06  1.0474e-06  0:00:08   72
  1929  6.2104e-06  1.2793e-05  1.3585e-05  1.7892e+00  5.9949e-06  3.8685e-06  1.0457e-06  0:00:06   71
  1930  6.1943e-06  1.2756e-05  1.3547e-05  1.8049e+00  5.9795e-06  3.8613e-06  1.0439e-06  0:00:05   70
  1931  6.1783e-06  1.2720e-05  1.3509e-05  1.8207e+00  5.9641e-06  3.8542e-06  1.0418e-06  0:00:17   69
  1932  6.1619e-06  1.2684e-05  1.3471e-05  1.8367e+00  5.9484e-06  3.8472e-06  1.0396e-06  0:00:14   68
  1933  6.1453e-06  1.2648e-05  1.3433e-05  1.8529e+00  5.9324e-06  3.8402e-06  1.0377e-06  0:00:11   67
  1934  6.1287e-06  1.2612e-05  1.3396e-05  1.8691e+00  5.9164e-06  3.8332e-06  1.0361e-06  0:00:09   66
  1935  6.1123e-06  1.2577e-05  1.3358e-05  1.8855e+00  5.9006e-06  3.8262e-06  1.0345e-06  0:00:07   65
  1936  6.0960e-06  1.2542e-05  1.3321e-05  1.9020e+00  5.8850e-06  3.8191e-06  1.0328e-06  0:00:05   64

  iter  continuity  x-velocity  y-velocity  z-velocity      energy           k       omega     time/iter
  1937  6.0800e-06  1.2507e-05  1.3284e-05  1.9187e+00  5.8696e-06  3.8121e-06  1.0309e-06  0:00:04   63
  1938  6.0641e-06  1.2473e-05  1.3247e-05  1.9354e+00  5.8543e-06  3.8050e-06  1.0286e-06  0:00:16   62
  1939  6.0484e-06  1.2439e-05  1.3210e-05  1.9523e+00  5.8392e-06  3.7980e-06  1.0262e-06  0:00:12   61
  1940  6.0328e-06  1.2405e-05  1.3174e-05  1.9693e+00  5.8242e-06  3.7909e-06  1.0239e-06  0:00:10   60
  1941  6.0172e-06  1.2371e-05  1.3137e-05  1.9864e+00  5.8093e-06  3.7837e-06  1.0215e-06  0:00:08   59
  1942  6.0017e-06  1.2338e-05  1.3101e-05  2.0037e+00  5.7944e-06  3.7766e-06  1.0192e-06  0:00:06   58
  1943  5.9862e-06  1.2305e-05  1.3065e-05  2.0211e+00  5.7796e-06  3.7694e-06  1.0168e-06  0:00:05   57
  1944  5.9708e-06  1.2271e-05  1.3029e-05  2.0387e+00  5.7648e-06  3.7622e-06  1.0149e-06  0:00:04   56
  1945  5.9553e-06  1.2239e-05  1.2993e-05  2.0563e+00  5.7499e-06  3.7551e-06  1.0129e-06  0:00:14   55
  1946  5.9399e-06  1.2206e-05  1.2957e-05  2.0742e+00  5.7351e-06  3.7487e-06  1.0111e-06  0:00:11   54
  1947  5.9246e-06  1.2173e-05  1.2922e-05  2.0922e+00  5.7203e-06  3.7406e-06  1.0093e-06  0:00:09   53

  iter  continuity  x-velocity  y-velocity  z-velocity      energy           k       omega     time/iter
  1948  5.9092e-06  1.2141e-05  1.2886e-05  2.1103e+00  5.7056e-06  3.7326e-06  1.0075e-06  0:00:07   52
  1949  5.8940e-06  1.2109e-05  1.2851e-05  2.1286e+00  5.6910e-06  3.7248e-06  1.0056e-06  0:00:05   51
  1950  5.8787e-06  1.2077e-05  1.2816e-05  2.1471e+00  5.6763e-06  3.7170e-06  1.0035e-06  0:00:04   50
  1951  5.8636e-06  1.2045e-05  1.2781e-05  2.1657e+00  5.6618e-06  3.7091e-06  1.0014e-06  0:00:13   49
  1952  5.8485e-06  1.2013e-05  1.2746e-05  2.1846e+00  5.6472e-06  3.7012e-06  9.9922e-07  0:00:10   48
  1953  5.8334e-06  1.1982e-05  1.2711e-05  2.2036e+00  5.6328e-06  3.6933e-06  9.9705e-07  0:00:08   47
  1954  5.8185e-06  1.1951e-05  1.2676e-05  2.2228e+00  5.6185e-06  3.6853e-06  9.9485e-07  0:00:06   46
  1955  5.8036e-06  1.1919e-05  1.2641e-05  2.2421e+00  5.6042e-06  3.6773e-06  9.9265e-07  0:00:05   45
  1956  5.7888e-06  1.1889e-05  1.2607e-05  2.2617e+00  5.5899e-06  3.6694e-06  9.9042e-07  0:00:04   44
  1957  5.7740e-06  1.1858e-05  1.2572e-05  2.2815e+00  5.5758e-06  3.6615e-06  9.8820e-07  0:00:03   43
  1958  5.7593e-06  1.1827e-05  1.2538e-05  2.3015e+00  5.5617e-06  3.6537e-06  9.8598e-07  0:00:11   42

  iter  continuity  x-velocity  y-velocity  z-velocity      energy           k       omega     time/iter
  1959  5.7447e-06  1.1797e-05  1.2504e-05  2.3217e+00  5.5476e-06  3.6460e-06  9.8378e-07  0:00:08   41
  1960  5.7301e-06  1.1766e-05  1.2469e-05  2.3420e+00  5.5336e-06  3.6382e-06  9.8158e-07  0:00:07   40
  1961  5.7156e-06  1.1736e-05  1.2435e-05  2.3626e+00  5.5197e-06  3.6305e-06  9.7952e-07  0:00:05   39
  1962  5.7012e-06  1.1706e-05  1.2401e-05  2.3834e+00  5.5058e-06  3.6227e-06  9.7763e-07  0:00:04   38
  1963  5.6868e-06  1.1676e-05  1.2367e-05  2.4044e+00  5.4920e-06  3.6150e-06  9.7572e-07  0:00:03   37
  1964  5.6724e-06  1.1646e-05  1.2334e-05  2.4255e+00  5.4782e-06  3.6072e-06  9.7380e-07  0:00:10   36
  1965  5.6582e-06  1.1616e-05  1.2300e-05  2.4468e+00  5.4645e-06  3.5994e-06  9.7185e-07  0:00:07   35
  1966  5.6439e-06  1.1587e-05  1.2266e-05  2.4683e+00  5.4508e-06  3.5915e-06  9.6993e-07  0:00:06   34
  1967  5.6297e-06  1.1557e-05  1.2233e-05  2.4900e+00  5.4372e-06  3.5836e-06  9.6800e-07  0:00:05   33
  1968  5.6156e-06  1.1528e-05  1.2199e-05  2.5118e+00  5.4237e-06  3.5757e-06  9.6606e-07  0:00:04   32
  1969  5.6015e-06  1.1499e-05  1.2166e-05  2.5338e+00  5.4101e-06  3.5678e-06  9.6411e-07  0:00:03   31

  iter  continuity  x-velocity  y-velocity  z-velocity      energy           k       omega     time/iter
  1970  5.5875e-06  1.1470e-05  1.2133e-05  2.5559e+00  5.3967e-06  3.5598e-06  9.6215e-07  0:00:02   30
  1971  5.5736e-06  1.1441e-05  1.2100e-05  2.5782e+00  5.3833e-06  3.5518e-06  9.6017e-07  0:00:02   29
  1972  5.5597e-06  1.1412e-05  1.2067e-05  2.6006e+00  5.3699e-06  3.5438e-06  9.5818e-07  0:00:07   28
  1973  5.5458e-06  1.1383e-05  1.2035e-05  2.6232e+00  5.3566e-06  3.5358e-06  9.5623e-07  0:00:05   27
  1974  5.5320e-06  1.1355e-05  1.2002e-05  2.6459e+00  5.3433e-06  3.5278e-06  9.5433e-07  0:00:04   26
  1975  5.5182e-06  1.1327e-05  1.1970e-05  2.6688e+00  5.3301e-06  3.5198e-06  9.5245e-07  0:00:03   25
  1976  5.5045e-06  1.1299e-05  1.1937e-05  2.6918e+00  5.3169e-06  3.5117e-06  9.5058e-07  0:00:02   24
  1977  5.4909e-06  1.1271e-05  1.1905e-05  2.7150e+00  5.3038e-06  3.5034e-06  9.4870e-07  0:00:06   23
  1978  5.4772e-06  1.1243e-05  1.1873e-05  2.7383e+00  5.2907e-06  3.4953e-06  9.4680e-07  0:00:05   22
  1979  5.4636e-06  1.1216e-05  1.1841e-05  2.7619e+00  5.2776e-06  3.4873e-06  9.4478e-07  0:00:04   21
  1980  5.4501e-06  1.1188e-05  1.1810e-05  2.7855e+00  5.2646e-06  3.4792e-06  9.4277e-07  0:00:03   20

  iter  continuity  x-velocity  y-velocity  z-velocity      energy           k       omega     time/iter
  1981  5.4366e-06  1.1161e-05  1.1778e-05  2.8094e+00  5.2516e-06  3.4711e-06  9.4096e-07  0:00:02   19
  1982  5.4231e-06  1.1134e-05  1.1747e-05  2.8334e+00  5.2386e-06  3.4630e-06  9.3896e-07  0:00:02   18
  1983  5.4096e-06  1.1107e-05  1.1716e-05  2.8575e+00  5.2257e-06  3.4548e-06  9.3696e-07  0:00:05   17
  1984  5.3961e-06  1.1081e-05  1.1685e-05  2.8819e+00  5.2128e-06  3.4466e-06  9.3517e-07  0:00:04   16
  1985  5.3827e-06  1.1054e-05  1.1654e-05  2.9065e+00  5.1998e-06  3.4383e-06  9.3335e-07  0:00:03   15
  1986  5.3693e-06  1.1028e-05  1.1623e-05  2.9312e+00  5.1869e-06  3.4301e-06  9.3150e-07  0:00:02   14
  1987  5.3559e-06  1.1002e-05  1.1592e-05  2.9562e+00  5.1741e-06  3.4219e-06  9.2966e-07  0:00:01   13
  1988  5.3426e-06  1.0976e-05  1.1562e-05  2.9813e+00  5.1612e-06  3.4137e-06  9.2775e-07  0:00:01   12
  1989  5.3292e-06  1.0950e-05  1.1532e-05  3.0066e+00  5.1484e-06  3.4056e-06  9.2576e-07  0:00:01   11
  1990  5.3159e-06  1.0925e-05  1.1501e-05  3.0321e+00  5.1356e-06  3.3974e-06  9.2376e-07  0:00:03   10
  1991  5.3026e-06  1.0899e-05  1.1471e-05  3.0579e+00  5.1228e-06  3.3891e-06  9.2184e-07  0:00:02    9

  iter  continuity  x-velocity  y-velocity  z-velocity      energy           k       omega     time/iter
  1992  5.2893e-06  1.0874e-05  1.1442e-05  3.0838e+00  5.1100e-06  3.3808e-06  9.1998e-07  0:00:01    8
  1993  5.2761e-06  1.0849e-05  1.1412e-05  3.1100e+00  5.0973e-06  3.3724e-06  9.1825e-07  0:00:01    7
  1994  5.2629e-06  1.0824e-05  1.1382e-05  3.1365e+00  5.0845e-06  3.3642e-06  9.1655e-07  0:00:01    6
  1995  5.2496e-06  1.0799e-05  1.1353e-05  3.1631e+00  5.0718e-06  3.3560e-06  9.1491e-07  0:00:00    5
  1996  5.2364e-06  1.0774e-05  1.1323e-05  3.1900e+00  5.0590e-06  3.3478e-06  9.1331e-07  0:00:00    4
  1997  5.2234e-06  1.0750e-05  1.1294e-05  3.2170e+00  5.0465e-06  3.3398e-06  9.1167e-07  0:00:01    3
  1998  5.2102e-06  1.0725e-05  1.1265e-05  3.2443e+00  5.0339e-06  3.3320e-06  9.1007e-07  0:00:00    2
  1999  5.1964e-06  1.0700e-05  1.1236e-05  3.2717e+00  5.0205e-06  3.3244e-06  9.0856e-07  0:00:00    1
  2000  5.1821e-06  1.0675e-05  1.1207e-05  3.2992e+00  5.0067e-06  3.3168e-06  9.0710e-07  0:00:00    0

> 
adjoint/                parallel/               server/
define/                 parametric-study/       solve/
display/                plot/                   surface/
exit                    preferences/            turbo-workflow/
file/                   print-license-usage     views/
mesh/                   report/

> /file/write-case-data project1
Fast-loading "C:\PROGRA~1\ANSYSI~1\v231\fluent\fluent23.1.0\\addons\afd\lib\hdfio.bin"
Done.

Writing to Engs-30669:"C:\Users\kebl7595\Desktop\CFD\Runs\Viscous\15 degrees\project1.cas.h5" in NODE0 mode and compression level 1 ...
       12996 cells,     1 zone  ...
       43722 faces,     8 zones ...
       17864 nodes,     1 zone  ...
  Done.
Done.

Writing to Engs-30669:"C:\Users\kebl7595\Desktop\CFD\Runs\Viscous\15 degrees\project1.dat.h5" in NODE0 mode and compression level 1 ...
  Writing results.
Done.

> /file/export/ascii "./surface.dat" wing te () no pressure mach-number quit no

Writing "./surface.dat"...

Writing information to ascii file ...
Done.


> /report/forces/wall-forces y -0.25882 0.96593 0 y "Lift"

> /report/forces/wall-forces y 0.96593 0.25882 0 y "Drag"

> /exit

Posting ANSYS Product Improvement Program performance data 
Done.
Auto-Transcript Stop Time:  10:49:17, 21 May 2024 GMT Daylight Time 
Total Transcript Time: 5 Minute 32 Second.
