Auto-Transcript Start Time:  13:57:20, 21 May 2024 GMT Daylight Time 
Current Directory: "C:\Users\kebl7595\Desktop\CFD\Runs\Viscous\Mach 0.3\15 degrees"

              Welcome to ANSYS Fluent 2023 R1

              Copyright 1987-2023 ANSYS, Inc. All Rights Reserved.
              Unauthorized use, distribution or duplication is prohibited.
              This product is subject to U.S. laws governing export and re-export.
              For full Legal Notice, see documentation.

Build Time: Nov 28 2022 09:52:02 EST  Build Id: 10208  
 
Connected License Server List:	1055@ansyslic.eng.ox.ac.uk

*********************************************
Info: Your license enables 4-way parallel execution.
For faster simulations, please start the application with the appropriate parallel options.
*********************************************


     --------------------------------------------------------------
     This is an academic version of ANSYS FLUENT. Usage of this product
     license is limited to the terms and conditions specified in your ANSYS
     license form, additional terms section.
     --------------------------------------------------------------
Host spawning Node 0 on machine "Engs-30669" (win64).

------------------------------------------------------------------------------------
ID    Hostname    Core  O.S.         PID    Vendor                                 
------------------------------------------------------------------------------------
n0    Engs-30669  1/32  Windows-x64  49088  13th Gen Intel(R) Core(TM) i9-13900    
host  Engs-30669        Windows-x64  14584  13th Gen Intel(R) Core(TM) i9-13900    

MPI Option Selected: intel
------------------------------------------------------------------------------------

Cleanup script file is C:\\Users\\kebl7595\\Desktop\\CFD\\Runs\\Viscous\\Mach 0.3\\15 degrees\\cleanup-fluent-Engs-30669-14584.bat
QA Service Message :
QA Services Agreement Enabled. This application is included in the scope of an ANSYS QA Services Agreement.
Posting ANSYS Product Improvement Program startup data
Done.

Reading journal file C:/Users/kebl7595/Desktop/CFD/Runs/Viscous/Mach 0.3/15 degrees/project1.jou...

> /file/set-batch-options no no no 

> 
define/                 parametric-study/       solve/
display/                plot/                   surface/
exit                    preferences/            switch-to-meshing-mode
file/                   print-license-usage     turbo-workflow/
mesh/                   report/                 views/
parallel/               server/

> /file/import/cgns/mesh  "./project1.cgns"
Engs-30669 has other FLUENT parallel processes running.                       Process affinity not being set.

Importing "./project1.cgns"

Opening library "C:\\PROGRA~1\\ANSYSI~1\\v231\\fluent\\fluent23.1.0\\vki\\win64\\devtools4.4.6.dll"... done.

Read    17864 nodes
   12996 hexahedral cells, zone  1
    9462 quadrilateral wall faces, zone  2.
   33972 quadrilateral interior faces, zone  3.
     282 quadrilateral interface faces, zone  4.
       6 quadrilateral wall faces, zone  5.

Building...
     mesh
     materials,
     interface,
     domains,
     zones,
	default_exterior-1
	interface-default_subface
	default_interior-1
	default_subface
	default
     parallel,
The automatic selection for flux type has changed to Rhie-Chow: momentum based.

Done.


> 
adjoint/                parallel/               server/
define/                 parametric-study/       solve/
display/                plot/                   surface/
exit                    preferences/            turbo-workflow/
file/                   print-license-usage     views/
mesh/                   report/

> /define/models/solver/density-based-implicit yes

> 
adjoint/                parallel/               server/
define/                 parametric-study/       solve/
display/                plot/                   surface/
exit                    preferences/            turbo-workflow/
file/                   print-license-usage     views/
mesh/                   report/

> /define/models/energy? yes yes invalid command [yes]
yes

> /define/models/viscous/kw-standard? yes

> 
adjoint/                parallel/               server/
define/                 parametric-study/       solve/
display/                plot/                   surface/
exit                    preferences/            turbo-workflow/
file/                   print-license-usage     views/
mesh/                   report/

> /define/materials/change-create air air air is a fluid
yes 
Density
ideal-gas no data required.

no no no no no no

> 
adjoint/                parallel/               server/
define/                 parametric-study/       solve/
display/                plot/                   surface/
exit                    preferences/            turbo-workflow/
file/                   print-license-usage     views/
mesh/                   report/

> /mesh/modify-zones/sep-face-zone-angle 2 90 yes

 4332 faces in contiguous region 0
 228 faces in contiguous region 1
 342 faces in contiguous region 2
 4332 faces in contiguous region 3
 228 faces in contiguous region 4
 Separates zone 2 into 5 zone(s).
Updating new zone information...
   created new zone default_subface:010 from default_subface
   created new zone default_subface:009 from default_subface
   created new zone default_subface:008 from default_subface
   created new zone default_subface:007 from default_subface
done.

> 
adjoint/                parallel/               server/
define/                 parametric-study/       solve/
display/                plot/                   surface/
exit                    preferences/            turbo-workflow/
file/                   print-license-usage     views/
mesh/                   report/

> /define/boundary-conditions/zone-name  5   te

> /define/boundary-conditions/zone-name  7 wing

> /define/boundary-conditions/zone-name  2 sym1

> /define/boundary-conditions/zone-name  9 sym2

> 
adjoint/                parallel/               server/
define/                 parametric-study/       solve/
display/                plot/                   surface/
exit                    preferences/            turbo-workflow/
file/                   print-license-usage     views/
mesh/                   report/

> /define/boundary-conditions/zone-name  8 far1

> /define/boundary-conditions/zone-name 10 far2

> 
adjoint/                parallel/               server/
define/                 parametric-study/       solve/
display/                plot/                   surface/
exit                    preferences/            turbo-workflow/
file/                   print-license-usage     views/
mesh/                   report/

> /define/boundary-conditions/zone-type  8 pressure-far-field

> /define/boundary-conditions/zone-type 10 pressure-far-field

> /define/boundary-conditions/zone-type  2 symmetry

> /define/boundary-conditions/zone-type  9 symmetry

> 
adjoint/                parallel/               server/
define/                 parametric-study/       solve/
display/                plot/                   surface/
exit                    preferences/            turbo-workflow/
file/                   print-license-usage     views/
mesh/                   report/

> /define/boundary-conditions/pressure-far-field (far2 far1)
far1 no 0 no 0.3 no 300 yes no 0.96593 no 0.25882 no 0. no yes 5 0.02

> /define/boundary-conditions/pressure-far-field (far2 far1)
far2 no 0 no 0.3 no 300 yes no 0.96593 no 0.25882 no 0. no yes 5 0.02

> 
adjoint/                parallel/               server/
define/                 parametric-study/       solve/
display/                plot/                   surface/
exit                    preferences/            turbo-workflow/
file/                   print-license-usage     views/
mesh/                   report/

> /solve/initialize/compute-defaults/pressure-far-field (far2 far1)
far1

> /solve/initialize/initialize-flow

> 
adjoint/                parallel/               server/
define/                 parametric-study/       solve/
display/                plot/                   surface/
exit                    preferences/            turbo-workflow/
file/                   print-license-usage     views/
mesh/                   report/

> /solve/monitors/residual/convergence-criteria 1.e-9 1.e-9 1.e-9 1.e-9 1.e-9 1.e-9 1.e-9

> /solve/iterate 2000

  iter  continuity  x-velocity  y-velocity  z-velocity      energy           k       omega     time/iter
     1  1.0000e+00  1.0000e+00  1.0000e+00  1.0000e+00  1.0000e+00  1.6866e-01  1.2531e-01  0:00:00 1999
     2  4.9409e-01  4.2928e-01  4.4955e-01  1.0000e+00  4.9878e-01  1.2936e-01  1.0005e-01  0:33:18 1998
     3  2.7099e-01  2.2041e-01  2.2787e-01  8.9199e-01  2.7238e-01  1.0254e-01  8.2489e-02  0:26:38 1997
     4  1.7652e-01  1.5649e-01  1.4028e-01  6.0593e-01  1.7700e-01  8.3957e-02  6.9346e-02  0:21:17 1996
     5  1.3213e-01  1.1779e-01  9.4840e-02  9.2281e-01  1.3268e-01  7.1605e-02  5.9541e-02  0:17:01 1995
     6  1.1017e-01  8.5622e-02  6.7360e-02  1.1298e+00  1.1110e-01  6.2205e-02  5.2360e-02  0:13:37 1994
     7  9.6740e-02  6.4030e-02  5.0182e-02  1.0730e+00  9.8005e-02  5.4622e-02  4.6697e-02  0:10:53 1993
     8  8.5760e-02  4.9604e-02  3.9422e-02  9.2511e-01  8.7150e-02  4.8398e-02  4.1961e-02  0:15:21 1992
     9  7.6424e-02  4.0153e-02  3.2503e-02  8.2172e-01  7.7782e-02  4.3240e-02  3.7931e-02  0:12:16 1991
    10  6.8655e-02  3.4130e-02  2.7729e-02  7.7357e-01  6.9891e-02  3.8942e-02  3.4489e-02  0:09:49 1990
    11  6.2420e-02  3.0275e-02  2.4206e-02  8.1012e-01  6.3493e-02  3.5367e-02  3.1534e-02  0:07:51 1989

  iter  continuity  x-velocity  y-velocity  z-velocity      energy           k       omega     time/iter
    12  5.7697e-02  2.8111e-02  2.1506e-02  9.4787e-01  5.8601e-02  3.2369e-02  2.8980e-02  0:06:16 1988
    13  5.4348e-02  2.7077e-02  1.9452e-02  1.2394e+00  5.5094e-02  2.9805e-02  2.6798e-02  0:05:01 1987
    14  5.2191e-02  2.6716e-02  1.7941e-02  1.6907e+00  5.2798e-02  2.7587e-02  2.4890e-02  0:04:01 1986
    15  5.1059e-02  2.6904e-02  1.6923e-02  2.2883e+00  5.1543e-02  2.5651e-02  2.3198e-02  0:09:49 1985
    16  5.0748e-02  2.7556e-02  1.6359e-02  3.0319e+00  5.1123e-02  2.3960e-02  2.1696e-02  0:07:51 1984
    17  5.1080e-02  2.8628e-02  1.6102e-02  3.9095e+00  5.1359e-02  2.2485e-02  2.0363e-02  0:06:17 1983
    18  5.1876e-02  2.9974e-02  1.6087e-02  4.8980e+00  5.2063e-02  2.1170e-02  1.9168e-02  0:05:01 1982
    19  5.2981e-02  3.1402e-02  1.6200e-02  5.9649e+00  5.3075e-02  1.9997e-02  1.8093e-02  0:04:01 1981
    20  5.4258e-02  3.2849e-02  1.6389e-02  7.0669e+00  5.4253e-02  1.8951e-02  1.7118e-02  0:03:13 1980
    21  5.5543e-02  3.4123e-02  1.6658e-02  8.1524e+00  5.5429e-02  1.8007e-02  1.6234e-02  0:02:34 1979
    22  5.6730e-02  3.5213e-02  1.7043e-02  9.1654e+00  5.6496e-02  1.7158e-02  1.5434e-02  0:02:03 1978

  iter  continuity  x-velocity  y-velocity  z-velocity      energy           k       omega     time/iter
    23  5.7708e-02  3.6050e-02  1.7462e-02  1.0050e+01  5.7343e-02  1.6380e-02  1.4701e-02  0:01:38 1977
    24  5.8390e-02  3.6650e-02  1.7956e-02  1.0755e+01  5.7882e-02  1.5664e-02  1.4030e-02  0:07:54 1976
    25  5.8723e-02  3.7019e-02  1.8454e-02  1.1228e+01  5.8063e-02  1.5001e-02  1.3413e-02  0:06:19 1975
    26  5.8673e-02  3.7224e-02  1.8968e-02  1.1432e+01  5.7854e-02  1.4389e-02  1.2846e-02  0:05:03 1974
    27  5.8230e-02  3.7360e-02  1.9460e-02  1.1354e+01  5.7247e-02  1.3823e-02  1.2328e-02  0:04:02 1973
    28  5.7378e-02  3.7177e-02  1.9946e-02  1.0986e+01  5.6232e-02  1.3298e-02  1.1850e-02  0:03:14 1972
    29  5.6159e-02  3.6961e-02  2.0429e-02  1.0376e+01  5.4854e-02  1.2810e-02  1.1400e-02  0:02:35 1971
    30  5.4591e-02  3.6912e-02  2.0895e-02  9.5303e+00  5.3132e-02  1.2352e-02  1.0978e-02  0:02:04 1970
    31  5.2711e-02  3.6943e-02  2.1401e-02  8.5913e+00  5.1109e-02  1.1926e-02  1.0581e-02  0:01:39 1969
    32  5.0579e-02  3.6996e-02  2.2046e-02  7.6583e+00  4.8844e-02  1.1529e-02  1.0199e-02  0:01:19 1968
    33  4.8221e-02  3.7030e-02  2.2825e-02  6.8256e+00  4.6363e-02  1.1158e-02  9.8344e-03  0:07:37 1967

  iter  continuity  x-velocity  y-velocity  z-velocity      energy           k       omega     time/iter
    34  4.5673e-02  3.7195e-02  2.3734e-02  6.3090e+00  4.3706e-02  1.0807e-02  9.4884e-03  0:06:05 1966
    35  4.2981e-02  3.7463e-02  2.4786e-02  6.2509e+00  4.0918e-02  1.0481e-02  9.1641e-03  0:04:52 1965
    36  4.0217e-02  3.7868e-02  2.5978e-02  6.6358e+00  3.8071e-02  1.0182e-02  8.8527e-03  0:03:53 1964
    37  3.7409e-02  3.8318e-02  2.7309e-02  7.3207e+00  3.5195e-02  9.8989e-03  8.5523e-03  0:03:07 1963
    38  3.4596e-02  3.8827e-02  2.8763e-02  8.1394e+00  3.2329e-02  9.6396e-03  8.2708e-03  0:02:29 1962
    39  3.1815e-02  3.9148e-02  3.0359e-02  8.9484e+00  2.9507e-02  9.4022e-03  7.9955e-03  0:01:59 1961
    40  2.9103e-02  3.9175e-02  3.2007e-02  9.6806e+00  2.6764e-02  9.1782e-03  7.7327e-03  0:01:35 1960
    41  2.6500e-02  3.9086e-02  3.3454e-02  1.0292e+01  2.4138e-02  8.9580e-03  7.4977e-03  0:01:16 1959
    42  2.4064e-02  3.8892e-02  3.4814e-02  1.0767e+01  2.1687e-02  8.7596e-03  7.2775e-03  0:07:33 1958
    43  2.1808e-02  3.8450e-02  3.6063e-02  1.1111e+01  1.9418e-02  8.5768e-03  7.0658e-03  0:06:02 1957
    44  1.9740e-02  3.7998e-02  3.7134e-02  1.1317e+01  1.7342e-02  8.4051e-03  6.8584e-03  0:04:49 1956

  iter  continuity  x-velocity  y-velocity  z-velocity      energy           k       omega     time/iter
    45  1.7866e-02  3.7473e-02  3.8026e-02  1.1398e+01  1.5460e-02  8.2407e-03  6.6685e-03  0:03:51 1955
    46  1.6192e-02  3.7025e-02  3.8725e-02  1.1354e+01  1.3784e-02  8.0840e-03  6.4682e-03  0:03:05 1954
    47  1.4730e-02  3.6633e-02  3.9274e-02  1.1166e+01  1.2329e-02  7.9357e-03  6.2745e-03  0:02:28 1953
    48  1.3484e-02  3.6281e-02  3.9676e-02  1.0859e+01  1.1108e-02  7.7868e-03  6.0840e-03  0:01:58 1952
    49  1.2450e-02  3.5972e-02  3.9923e-02  1.0441e+01  1.0120e-02  7.6504e-03  5.8924e-03  0:01:35 1951
    50  1.1621e-02  3.5686e-02  4.0042e-02  9.9346e+00  9.3673e-03  7.5200e-03  5.7023e-03  0:01:16 1950
    51  1.0987e-02  3.5474e-02  4.0047e-02  9.3727e+00  8.8455e-03  7.4016e-03  5.5115e-03  0:07:30 1949
    52  1.0529e-02  3.5349e-02  3.9943e-02  8.7561e+00  8.5367e-03  7.2831e-03  5.3328e-03  0:06:00 1948
    53  1.0218e-02  3.5300e-02  3.9736e-02  8.1129e+00  8.4026e-03  7.1640e-03  5.1517e-03  0:04:48 1947
    54  1.0033e-02  3.5334e-02  3.9425e-02  7.4555e+00  8.4139e-03  7.0444e-03  4.9650e-03  0:03:50 1946
    55  9.9490e-03  3.5433e-02  3.9028e-02  6.8087e+00  8.5355e-03  6.9245e-03  4.7731e-03  0:03:04 1945

  iter  continuity  x-velocity  y-velocity  z-velocity      energy           k       omega     time/iter
    56  9.9420e-03  3.5592e-02  3.8558e-02  6.2542e+00  8.7333e-03  6.8132e-03  4.5836e-03  0:02:27 1944
    57  9.9702e-03  3.6020e-02  3.7929e-02  5.8772e+00  8.9642e-03  6.7135e-03  4.4209e-03  0:01:58 1943
    58  1.0053e-02  3.6520e-02  3.7265e-02  5.6778e+00  9.2434e-03  6.6479e-03  4.2749e-03  0:01:34 1942
    59  1.0181e-02  3.6863e-02  3.6606e-02  5.6880e+00  9.5547e-03  6.6605e-03  4.1546e-03  0:01:15 1941
    60  1.0336e-02  3.7147e-02  3.5934e-02  5.9486e+00  9.8775e-03  6.7252e-03  4.0476e-03  0:01:00 1940
    61  1.0508e-02  3.7448e-02  3.5225e-02  6.4263e+00  1.0200e-02  6.7910e-03  3.9530e-03  0:07:16 1939
    62  1.0693e-02  3.7780e-02  3.4468e-02  7.0731e+00  1.0518e-02  6.8711e-03  3.8819e-03  0:05:49 1938
    63  1.0874e-02  3.8089e-02  3.3666e-02  7.7825e+00  1.0817e-02  6.9712e-03  3.8124e-03  0:04:39 1937
    64  1.1057e-02  3.8398e-02  3.2831e-02  8.4750e+00  1.1100e-02  7.0967e-03  3.7487e-03  0:03:43 1936
    65  1.1237e-02  3.8691e-02  3.1956e-02  9.0947e+00  1.1364e-02  7.2222e-03  3.6925e-03  0:02:58 1935
    66  1.1403e-02  3.8939e-02  3.1048e-02  9.6485e+00  1.1600e-02  7.3344e-03  3.6553e-03  0:02:22 1934

  iter  continuity  x-velocity  y-velocity  z-velocity      energy           k       omega     time/iter
    67  1.1555e-02  3.9139e-02  3.0105e-02  1.0107e+01  1.1807e-02  7.4380e-03  3.6110e-03  0:01:54 1933
    68  1.1686e-02  3.9271e-02  2.9140e-02  1.0394e+01  1.1980e-02  7.5462e-03  3.5615e-03  0:01:31 1932
    69  1.1790e-02  3.9312e-02  2.8152e-02  1.0486e+01  1.2111e-02  7.6413e-03  3.5275e-03  0:01:13 1931
    70  1.1860e-02  3.9253e-02  2.7139e-02  1.0474e+01  1.2198e-02  7.7349e-03  3.4881e-03  0:07:24 1930
    71  1.1884e-02  3.9040e-02  2.6094e-02  1.0376e+01  1.2227e-02  7.8239e-03  3.4486e-03  0:05:55 1929
    72  1.1870e-02  3.8729e-02  2.5051e-02  1.0179e+01  1.2208e-02  7.9003e-03  3.4124e-03  0:04:44 1928
    73  1.1804e-02  3.8282e-02  2.3967e-02  9.8634e+00  1.2129e-02  7.9698e-03  3.3778e-03  0:03:47 1927
    74  1.1668e-02  3.7656e-02  2.2875e-02  9.4462e+00  1.1974e-02  8.0250e-03  3.3403e-03  0:03:02 1926
    75  1.1488e-02  3.6913e-02  2.1918e-02  8.9566e+00  1.1769e-02  8.0845e-03  3.3044e-03  0:02:25 1925
    76  1.1260e-02  3.6100e-02  2.0916e-02  8.4056e+00  1.1508e-02  8.1282e-03  3.2753e-03  0:01:56 1924
    77  1.0965e-02  3.5177e-02  1.9824e-02  7.8072e+00  1.1175e-02  8.1584e-03  3.2401e-03  0:01:33 1923

  iter  continuity  x-velocity  y-velocity  z-velocity      energy           k       omega     time/iter
    78  1.0610e-02  3.4201e-02  1.8691e-02  7.1910e+00  1.0780e-02  8.1906e-03  3.1982e-03  0:01:14 1922
    79  1.0204e-02  3.3208e-02  1.7554e-02  6.6207e+00  1.0334e-02  8.3305e-03  3.2270e-03  0:07:24 1921
    80  9.7473e-03  3.1808e-02  1.6491e-02  6.1190e+00  9.8347e-03  8.3217e-03  3.1545e-03  0:05:55 1920
    81  9.2594e-03  3.0454e-02  1.5427e-02  5.7145e+00  9.3050e-03  8.3222e-03  3.0926e-03  0:04:44 1919
    82  8.7553e-03  2.9067e-02  1.4357e-02  5.4064e+00  8.7603e-03  8.3393e-03  3.0427e-03  0:03:47 1918
    83  8.2590e-03  2.7756e-02  1.3283e-02  5.2312e+00  8.2252e-03  8.3630e-03  2.9914e-03  0:03:01 1917
    84  7.7880e-03  2.6891e-02  1.2075e-02  5.1989e+00  7.7234e-03  8.3825e-03  2.9628e-03  0:02:25 1916
    85  7.4006e-03  2.5947e-02  1.1128e-02  5.2752e+00  7.3101e-03  8.4026e-03  2.9210e-03  0:01:56 1915
    86  7.1313e-03  2.5083e-02  1.0390e-02  5.4446e+00  7.0200e-03  8.4331e-03  2.8717e-03  0:01:33 1914
    87  7.0151e-03  2.4290e-02  9.8148e-03  5.6699e+00  6.8872e-03  8.4947e-03  2.8237e-03  0:01:14 1913
    88  7.0232e-03  2.3619e-02  9.3720e-03  5.9001e+00  6.8844e-03  8.5751e-03  2.7894e-03  0:07:22 1912

  iter  continuity  x-velocity  y-velocity  z-velocity      energy           k       omega     time/iter
    89  7.2562e-03  2.3195e-02  9.0428e-03  6.1268e+00  7.1064e-03  8.6708e-03  2.7707e-03  0:05:53 1911
    90  7.6327e-03  2.2807e-02  8.7906e-03  6.3457e+00  7.4709e-03  8.7633e-03  2.7576e-03  0:04:42 1910
    91  8.1182e-03  2.2341e-02  8.6486e-03  6.5073e+00  7.9430e-03  8.8590e-03  2.7439e-03  0:03:46 1909
    92  8.7032e-03  2.2043e-02  8.5399e-03  6.6180e+00  8.5116e-03  8.9514e-03  2.7227e-03  0:03:01 1908
    93  9.3585e-03  2.1960e-02  8.4435e-03  6.7005e+00  9.1459e-03  9.0420e-03  2.6958e-03  0:02:24 1907
    94  1.0045e-02  2.1988e-02  8.4318e-03  6.7279e+00  9.8053e-03  9.1256e-03  2.6707e-03  0:01:55 1906
    95  1.0737e-02  2.2072e-02  8.4904e-03  6.7079e+00  1.0464e-02  9.2047e-03  2.6516e-03  0:01:32 1905
    96  1.1411e-02  2.2162e-02  8.6011e-03  6.6587e+00  1.1099e-02  9.3259e-03  2.6272e-03  0:01:14 1904
    97  1.2038e-02  2.2241e-02  8.7522e-03  6.5766e+00  1.1681e-02  9.4502e-03  2.6095e-03  0:07:20 1903
    98  1.2616e-02  2.2311e-02  8.9463e-03  6.4646e+00  1.2208e-02  9.5673e-03  2.5804e-03  0:05:51 1902
    99  1.3138e-02  2.2333e-02  9.1584e-03  6.3088e+00  1.2673e-02  9.7025e-03  2.5461e-03  0:04:41 1901

  iter  continuity  x-velocity  y-velocity  z-velocity      energy           k       omega     time/iter
   100  1.3588e-02  2.2289e-02  9.3878e-03  6.1302e+00  1.3061e-02  9.8350e-03  2.5042e-03  0:03:45 1900
   101  1.3962e-02  2.2130e-02  9.6317e-03  5.9144e+00  1.3368e-02  9.9556e-03  2.4621e-03  0:03:00 1899
   102  1.4253e-02  2.1921e-02  9.9153e-03  5.6860e+00  1.3589e-02  1.0053e-02  2.4142e-03  0:02:24 1898
   103  1.4457e-02  2.1656e-02  1.0213e-02  5.4530e+00  1.3720e-02  1.0154e-02  2.3701e-03  0:01:55 1897
   104  1.4586e-02  2.1386e-02  1.0539e-02  5.2290e+00  1.3774e-02  1.0247e-02  2.3279e-03  0:01:32 1896
   105  1.4632e-02  2.1034e-02  1.0860e-02  5.0172e+00  1.3743e-02  1.0338e-02  2.2918e-03  0:01:13 1895
   106  1.4591e-02  2.0589e-02  1.1185e-02  4.8239e+00  1.3625e-02  1.0421e-02  2.2646e-03  0:07:18 1894
   107  1.4468e-02  2.0070e-02  1.1524e-02  4.6480e+00  1.3426e-02  1.0469e-02  2.2380e-03  0:05:50 1893
   108  1.4277e-02  1.9511e-02  1.1867e-02  4.4893e+00  1.3159e-02  1.0505e-02  2.2105e-03  0:04:40 1892
   109  1.4018e-02  1.8940e-02  1.2208e-02  4.3628e+00  1.2827e-02  1.0599e-02  2.2699e-03  0:03:44 1891
   110  1.3697e-02  1.8363e-02  1.2546e-02  4.2552e+00  1.2435e-02  1.0555e-02  2.2230e-03  0:02:59 1890

  iter  continuity  x-velocity  y-velocity  z-velocity      energy           k       omega     time/iter
   111  1.3322e-02  1.7800e-02  1.2878e-02  4.1651e+00  1.1993e-02  1.0500e-02  2.1804e-03  0:02:23 1889
   112  1.2899e-02  1.7180e-02  1.3240e-02  4.0871e+00  1.1507e-02  1.0462e-02  2.1403e-03  0:01:54 1888
   113  1.2435e-02  1.6443e-02  1.3595e-02  4.0165e+00  1.0985e-02  1.0424e-02  2.1016e-03  0:01:31 1887
   114  1.1941e-02  1.5789e-02  1.3907e-02  3.9340e+00  1.0439e-02  1.0390e-02  2.0687e-03  0:01:13 1886
   115  1.1432e-02  1.5353e-02  1.4154e-02  3.8422e+00  9.8861e-03  1.0329e-02  2.0389e-03  0:07:15 1885
   116  1.0915e-02  1.5068e-02  1.4357e-02  3.7480e+00  9.3347e-03  1.0236e-02  2.0117e-03  0:05:48 1884
   117  1.0403e-02  1.4903e-02  1.4527e-02  3.6539e+00  8.7984e-03  1.0119e-02  1.9739e-03  0:04:38 1883
   118  9.9054e-03  1.4848e-02  1.4661e-02  3.5613e+00  8.2893e-03  9.9900e-03  1.9489e-03  0:03:43 1882
   119  9.4335e-03  1.4938e-02  1.4754e-02  3.4720e+00  7.8210e-03  9.8570e-03  1.9187e-03  0:02:58 1881
   120  8.9581e-03  1.5010e-02  1.4680e-02  3.3812e+00  7.3635e-03  9.7037e-03  1.8807e-03  0:02:22 1880
   121  8.4800e-03  1.5301e-02  1.4492e-02  3.2918e+00  6.9247e-03  9.5440e-03  1.8398e-03  0:01:54 1879

  iter  continuity  x-velocity  y-velocity  z-velocity      energy           k       omega     time/iter
   122  8.0731e-03  1.5834e-02  1.4383e-02  3.2042e+00  6.5879e-03  9.3646e-03  1.8020e-03  0:01:31 1878
   123  7.7346e-03  1.6421e-02  1.4289e-02  3.1268e+00  6.3433e-03  9.1780e-03  1.7635e-03  0:01:13 1877
   124  7.4640e-03  1.7039e-02  1.4175e-02  3.0603e+00  6.1862e-03  8.9831e-03  1.7344e-03  0:07:13 1876
   125  7.2380e-03  1.7380e-02  1.4036e-02  2.9964e+00  6.0873e-03  8.7724e-03  1.7022e-03  0:05:47 1875
   126  7.0835e-03  1.7942e-02  1.3826e-02  2.9495e+00  6.0717e-03  8.5477e-03  1.6693e-03  0:04:37 1874
   127  6.9763e-03  1.8476e-02  1.3571e-02  2.9165e+00  6.1073e-03  8.3109e-03  1.6405e-03  0:03:42 1873
   128  6.9179e-03  1.8987e-02  1.3288e-02  2.8918e+00  6.1907e-03  8.0933e-03  1.6159e-03  0:02:57 1872
   129  6.9038e-03  1.9479e-02  1.2981e-02  2.8757e+00  6.3115e-03  7.8560e-03  1.5866e-03  0:02:22 1871
   130  6.9248e-03  1.9948e-02  1.2656e-02  2.8642e+00  6.4564e-03  7.6052e-03  1.5623e-03  0:01:53 1870
   131  6.9682e-03  2.0386e-02  1.2314e-02  2.8505e+00  6.6098e-03  7.3807e-03  1.5380e-03  0:01:31 1869
   132  7.0271e-03  2.0786e-02  1.1956e-02  2.8308e+00  6.7639e-03  7.1099e-03  1.5142e-03  0:01:12 1868

  iter  continuity  x-velocity  y-velocity  z-velocity      energy           k       omega     time/iter
   133  7.0945e-03  2.1144e-02  1.1587e-02  2.8031e+00  6.9115e-03  6.8667e-03  1.4948e-03  0:00:58 1867
   134  7.1556e-03  2.1419e-02  1.1223e-02  2.7700e+00  7.0389e-03  6.6209e-03  1.4808e-03  0:06:59 1866
   135  7.2035e-03  2.1621e-02  1.0862e-02  2.7315e+00  7.1399e-03  6.3958e-03  1.4698e-03  0:05:35 1865
   136  7.2337e-03  2.1756e-02  1.0503e-02  2.6897e+00  7.2110e-03  6.1851e-03  1.4580e-03  0:04:28 1864
   137  7.2454e-03  2.1820e-02  1.0152e-02  2.6438e+00  7.2526e-03  5.9977e-03  1.4538e-03  0:03:34 1863
   138  7.2409e-03  2.1813e-02  9.8126e-03  2.5959e+00  7.2677e-03  5.8099e-03  1.4512e-03  0:02:51 1862
   139  7.2211e-03  2.1748e-02  9.4841e-03  2.5500e+00  7.2584e-03  5.6334e-03  1.4449e-03  0:02:17 1861
   140  7.1861e-03  2.1632e-02  9.1616e-03  2.5068e+00  7.2255e-03  5.4565e-03  1.4353e-03  0:01:50 1860
   141  7.1361e-03  2.1458e-02  8.8535e-03  2.4663e+00  7.1703e-03  5.3007e-03  1.4281e-03  0:01:28 1859
   142  7.0706e-03  2.1222e-02  8.5630e-03  2.4294e+00  7.0929e-03  5.1433e-03  1.4274e-03  0:07:22 1858
   143  6.9890e-03  2.0929e-02  8.2924e-03  2.3931e+00  6.9935e-03  5.0247e-03  1.4292e-03  0:05:53 1857

  iter  continuity  x-velocity  y-velocity  z-velocity      energy           k       omega     time/iter
   144  6.8932e-03  2.0599e-02  8.0400e-03  2.3635e+00  6.8746e-03  4.9834e-03  1.4348e-03  0:04:42 1856
   145  6.7839e-03  2.0228e-02  7.8134e-03  2.3413e+00  6.7378e-03  4.9256e-03  1.4426e-03  0:03:46 1855
   146  6.6647e-03  1.9765e-02  7.6812e-03  2.3253e+00  6.5866e-03  4.8891e-03  1.4460e-03  0:03:01 1854
   147  6.5404e-03  1.9417e-02  7.5150e-03  2.3168e+00  6.4267e-03  4.8988e-03  1.4530e-03  0:02:24 1853
   148  6.4028e-03  1.9088e-02  7.3233e-03  2.3092e+00  6.2501e-03  4.8880e-03  1.4668e-03  0:01:55 1852
   149  6.2500e-03  1.8666e-02  7.1258e-03  2.3110e+00  6.0550e-03  4.8941e-03  1.4801e-03  0:01:32 1851
   150  6.0867e-03  1.8117e-02  6.9587e-03  2.3177e+00  5.8472e-03  4.9169e-03  1.4885e-03  0:01:14 1850
   151  5.9153e-03  1.7481e-02  6.8202e-03  2.3259e+00  5.6295e-03  4.9507e-03  1.4948e-03  0:07:09 1849
   152  5.7384e-03  1.6844e-02  6.7074e-03  2.3350e+00  5.4054e-03  4.9830e-03  1.5016e-03  0:05:43 1848
   153  5.5561e-03  1.6292e-02  6.5912e-03  2.3507e+00  5.1758e-03  4.9874e-03  1.5018e-03  0:04:34 1847
   154  5.3737e-03  1.5720e-02  6.5082e-03  2.3704e+00  4.9458e-03  4.9913e-03  1.5053e-03  0:03:39 1846

  iter  continuity  x-velocity  y-velocity  z-velocity      energy           k       omega     time/iter
   155  5.1940e-03  1.5133e-02  6.4508e-03  2.4003e+00  4.7181e-03  4.9783e-03  1.5022e-03  0:02:55 1845
   156  5.0189e-03  1.4569e-02  6.4046e-03  2.4016e+00  4.4954e-03  4.9567e-03  1.5024e-03  0:02:20 1844
   157  4.8498e-03  1.4030e-02  6.3625e-03  2.3739e+00  4.2797e-03  4.9713e-03  1.4951e-03  0:01:52 1843
   158  4.6876e-03  1.3529e-02  6.3159e-03  2.3278e+00  4.0750e-03  5.0136e-03  1.4872e-03  0:01:30 1842
   159  4.5320e-03  1.3034e-02  6.2752e-03  2.2816e+00  3.8754e-03  5.0651e-03  1.4774e-03  0:01:12 1841
   160  4.3872e-03  1.2581e-02  6.2395e-03  2.2415e+00  3.6881e-03  5.1132e-03  1.4659e-03  0:07:05 1840
   161  4.2521e-03  1.2159e-02  6.1976e-03  2.2063e+00  3.5145e-03  5.1524e-03  1.4518e-03  0:05:40 1839
   162  4.1258e-03  1.1764e-02  6.1392e-03  2.1680e+00  3.3538e-03  5.1837e-03  1.4416e-03  0:04:32 1838
   163  4.0139e-03  1.1388e-02  6.1052e-03  2.1246e+00  3.2123e-03  5.2032e-03  1.4318e-03  0:03:37 1837
   164  3.9224e-03  1.1130e-02  6.0922e-03  2.0779e+00  3.0984e-03  5.1990e-03  1.4132e-03  0:02:54 1836
   165  3.8462e-03  1.0815e-02  6.0999e-03  2.0309e+00  3.0054e-03  5.1846e-03  1.3899e-03  0:02:19 1835

  iter  continuity  x-velocity  y-velocity  z-velocity      energy           k       omega     time/iter
   166  3.7795e-03  1.0499e-02  6.0963e-03  1.9763e+00  2.9280e-03  5.1410e-03  1.3680e-03  0:01:51 1834
   167  3.7200e-03  1.0205e-02  6.0766e-03  1.9152e+00  2.8637e-03  5.0995e-03  1.3470e-03  0:01:29 1833
   168  3.6666e-03  9.9426e-03  6.0452e-03  1.8511e+00  2.8116e-03  5.0675e-03  1.3269e-03  0:07:17 1832
   169  3.6185e-03  9.7097e-03  6.0056e-03  1.7867e+00  2.7700e-03  5.0347e-03  1.2988e-03  0:05:50 1831
   170  3.5739e-03  9.5048e-03  5.9607e-03  1.7218e+00  2.7369e-03  4.9867e-03  1.2761e-03  0:04:40 1830
   171  3.5318e-03  9.3251e-03  5.9133e-03  1.6597e+00  2.7103e-03  4.9430e-03  1.2510e-03  0:03:44 1829
   172  3.4904e-03  9.1578e-03  5.8591e-03  1.6098e+00  2.6877e-03  4.9015e-03  1.2189e-03  0:02:59 1828
   173  3.4489e-03  9.0068e-03  5.7995e-03  1.5721e+00  2.6674e-03  4.8348e-03  1.1830e-03  0:02:23 1827
   174  3.4054e-03  8.8815e-03  5.7355e-03  1.5422e+00  2.6470e-03  4.7671e-03  1.1470e-03  0:01:54 1826
   175  3.3603e-03  8.8620e-03  5.6876e-03  1.5172e+00  2.6261e-03  4.6985e-03  1.1142e-03  0:01:31 1825
   176  3.3156e-03  8.7770e-03  5.6297e-03  1.4949e+00  2.6060e-03  4.6200e-03  1.0851e-03  0:01:13 1824

  iter  continuity  x-velocity  y-velocity  z-velocity      energy           k       omega     time/iter
   177  3.2648e-03  8.6475e-03  5.5470e-03  1.4794e+00  2.5795e-03  4.5494e-03  1.0574e-03  0:07:03 1823
   178  3.2087e-03  8.5039e-03  5.4544e-03  1.4703e+00  2.5478e-03  4.4723e-03  1.0303e-03  0:05:38 1822
   179  3.1477e-03  8.3596e-03  5.3571e-03  1.4683e+00  2.5111e-03  4.3874e-03  1.0039e-03  0:04:30 1821
   180  3.0828e-03  8.2172e-03  5.2622e-03  1.4827e+00  2.4700e-03  4.3066e-03  9.7351e-04  0:03:36 1820
   181  3.0148e-03  8.0775e-03  5.1726e-03  1.5127e+00  2.4251e-03  4.2305e-03  9.4265e-04  0:02:53 1819
   182  2.9411e-03  7.9323e-03  5.0873e-03  1.5572e+00  2.3734e-03  4.1704e-03  9.1567e-04  0:02:18 1818
   183  2.8681e-03  7.8266e-03  5.0081e-03  1.6108e+00  2.3219e-03  4.1109e-03  8.9531e-04  0:01:51 1817
   184  2.7964e-03  7.7353e-03  4.9299e-03  1.6660e+00  2.2705e-03  4.0504e-03  8.7337e-04  0:01:28 1816
   185  2.7260e-03  7.6447e-03  4.8523e-03  1.7178e+00  2.2190e-03  3.9948e-03  8.5545e-04  0:01:11 1815
   186  2.6576e-03  7.5481e-03  4.7743e-03  1.7641e+00  2.1680e-03  3.9339e-03  8.3757e-04  0:06:59 1814
   187  2.5913e-03  7.4333e-03  4.6955e-03  1.8047e+00  2.1178e-03  3.8779e-03  8.2479e-04  0:05:35 1813

  iter  continuity  x-velocity  y-velocity  z-velocity      energy           k       omega     time/iter
   188  2.5299e-03  7.3090e-03  4.6188e-03  1.8373e+00  2.0712e-03  3.8119e-03  8.1898e-04  0:04:28 1812
   189  2.4733e-03  7.1763e-03  4.5410e-03  1.8648e+00  2.0282e-03  3.7436e-03  8.1464e-04  0:03:34 1811
   190  2.4217e-03  7.0386e-03  4.4618e-03  1.8869e+00  1.9893e-03  3.6779e-03  8.1082e-04  0:02:51 1810
   191  2.3763e-03  6.9016e-03  4.3813e-03  1.9021e+00  1.9558e-03  3.6154e-03  8.0878e-04  0:02:17 1809
   192  2.3386e-03  6.7716e-03  4.2993e-03  1.9094e+00  1.9296e-03  3.5505e-03  7.9979e-04  0:01:50 1808
   193  2.3097e-03  6.6507e-03  4.2164e-03  1.9124e+00  1.9120e-03  3.4844e-03  7.9773e-04  0:01:28 1807
   194  2.2910e-03  6.5403e-03  4.1333e-03  1.9124e+00  1.9046e-03  3.4170e-03  7.9548e-04  0:01:10 1806
   195  2.2830e-03  6.4404e-03  4.0506e-03  1.9092e+00  1.9078e-03  3.3502e-03  7.9453e-04  0:06:57 1805
   196  2.2857e-03  6.3503e-03  3.9690e-03  1.9067e+00  1.9217e-03  3.2885e-03  7.9178e-04  0:05:33 1804
   197  2.2980e-03  6.2690e-03  3.8894e-03  1.9055e+00  1.9450e-03  3.2324e-03  7.8452e-04  0:04:27 1803
   198  2.3193e-03  6.1956e-03  3.8125e-03  1.9014e+00  1.9767e-03  3.1865e-03  7.7819e-04  0:03:33 1802

  iter  continuity  x-velocity  y-velocity  z-velocity      energy           k       omega     time/iter
   199  2.3485e-03  6.1298e-03  3.7387e-03  1.8960e+00  2.0158e-03  3.1541e-03  7.8004e-04  0:02:50 1801
   200  2.3842e-03  6.0709e-03  3.6686e-03  1.8893e+00  2.0606e-03  3.1239e-03  7.7943e-04  0:02:16 1800
   201  2.4250e-03  6.0187e-03  3.6026e-03  1.8831e+00  2.1097e-03  3.0971e-03  7.7793e-04  0:01:49 1799
   202  2.4698e-03  5.9731e-03  3.5411e-03  1.8814e+00  2.1618e-03  3.0762e-03  7.7659e-04  0:01:27 1798
   203  2.5171e-03  5.9331e-03  3.4847e-03  1.8794e+00  2.2156e-03  3.0686e-03  7.7512e-04  0:07:09 1797
   204  2.5656e-03  5.8979e-03  3.4338e-03  1.8679e+00  2.2698e-03  3.0657e-03  7.7338e-04  0:05:43 1796
   205  2.6139e-03  5.8664e-03  3.3886e-03  1.8506e+00  2.3227e-03  3.0629e-03  7.7294e-04  0:04:34 1795
   206  2.6604e-03  5.8390e-03  3.3489e-03  1.8336e+00  2.3730e-03  3.0697e-03  7.7407e-04  0:03:39 1794
   207  2.7041e-03  5.8128e-03  3.3155e-03  1.8107e+00  2.4195e-03  3.0817e-03  7.7490e-04  0:02:55 1793
   208  2.7438e-03  5.7867e-03  3.2882e-03  1.7809e+00  2.4612e-03  3.0943e-03  7.7531e-04  0:02:20 1792
   209  2.7786e-03  5.7603e-03  3.2667e-03  1.7464e+00  2.4972e-03  3.1033e-03  7.6650e-04  0:01:52 1791

  iter  continuity  x-velocity  y-velocity  z-velocity      energy           k       omega     time/iter
   210  2.8077e-03  5.7328e-03  3.2508e-03  1.7064e+00  2.5266e-03  3.1155e-03  7.6033e-04  0:01:30 1790
   211  2.8306e-03  5.7040e-03  3.2400e-03  1.6605e+00  2.5491e-03  3.1205e-03  7.5392e-04  0:01:12 1789
   212  2.8467e-03  5.6733e-03  3.2337e-03  1.6099e+00  2.5642e-03  3.1324e-03  7.4841e-04  0:06:55 1788
   213  2.8561e-03  5.6398e-03  3.2315e-03  1.5546e+00  2.5720e-03  3.1457e-03  7.4230e-04  0:05:32 1787
   214  2.8589e-03  5.6030e-03  3.2329e-03  1.4974e+00  2.5727e-03  3.1471e-03  7.3651e-04  0:04:25 1786
   215  2.8550e-03  5.5629e-03  3.2371e-03  1.4388e+00  2.5664e-03  3.1394e-03  7.2900e-04  0:03:32 1785
   216  2.8443e-03  5.5199e-03  3.2438e-03  1.3808e+00  2.5528e-03  3.1289e-03  7.2133e-04  0:02:50 1784
   217  2.8271e-03  5.4730e-03  3.2519e-03  1.3243e+00  2.5324e-03  3.1132e-03  7.1416e-04  0:02:16 1783
   218  2.8036e-03  5.4230e-03  3.2613e-03  1.2720e+00  2.5056e-03  3.0931e-03  7.0719e-04  0:01:48 1782
   219  2.7736e-03  5.3709e-03  3.2714e-03  1.2247e+00  2.4721e-03  3.0663e-03  7.0051e-04  0:01:27 1781
   220  2.7374e-03  5.3162e-03  3.2822e-03  1.1815e+00  2.4322e-03  3.0342e-03  6.9221e-04  0:01:09 1780

  iter  continuity  x-velocity  y-velocity  z-velocity      energy           k       omega     time/iter
   221  2.6947e-03  5.2591e-03  3.2932e-03  1.1446e+00  2.3855e-03  2.9959e-03  6.8521e-04  0:06:51 1779
   222  2.6457e-03  5.2012e-03  3.3035e-03  1.1140e+00  2.3324e-03  2.9510e-03  6.7809e-04  0:05:29 1778
   223  2.5901e-03  5.1424e-03  3.3128e-03  1.0894e+00  2.2726e-03  2.9006e-03  6.7024e-04  0:04:23 1777
   224  2.5273e-03  5.0827e-03  3.3206e-03  1.0720e+00  2.2052e-03  2.8501e-03  6.6211e-04  0:03:30 1776
   225  2.4598e-03  5.0228e-03  3.3270e-03  1.0616e+00  2.1332e-03  2.8006e-03  6.5406e-04  0:02:48 1775
   226  2.3873e-03  4.9632e-03  3.3307e-03  1.0574e+00  2.0560e-03  2.7552e-03  6.4574e-04  0:02:14 1774
   227  2.3102e-03  4.9037e-03  3.3321e-03  1.0610e+00  1.9741e-03  2.7092e-03  6.3775e-04  0:07:42 1773
   228  2.2296e-03  4.8442e-03  3.3310e-03  1.0683e+00  1.8885e-03  2.6613e-03  6.3099e-04  0:06:09 1772
   229  2.1467e-03  4.7859e-03  3.3270e-03  1.0774e+00  1.8005e-03  2.6157e-03  6.2346e-04  0:04:55 1771
   230  2.0621e-03  4.7294e-03  3.3200e-03  1.0899e+00  1.7107e-03  2.5780e-03  6.0763e-04  0:03:56 1770
   231  1.9772e-03  4.6757e-03  3.3094e-03  1.1033e+00  1.6208e-03  2.5430e-03  5.9741e-04  0:03:09 1769

  iter  continuity  x-velocity  y-velocity  z-velocity      energy           k       omega     time/iter
   232  1.8942e-03  4.6253e-03  3.2954e-03  1.1171e+00  1.5333e-03  2.5087e-03  5.8674e-04  0:02:31 1768
   233  1.8145e-03  4.5779e-03  3.2778e-03  1.1308e+00  1.4498e-03  2.4749e-03  5.7796e-04  0:02:01 1767
   234  1.7391e-03  4.5330e-03  3.2564e-03  1.1426e+00  1.3716e-03  2.4425e-03  5.6891e-04  0:01:37 1766
   235  1.6698e-03  4.4904e-03  3.2311e-03  1.1523e+00  1.3011e-03  2.4135e-03  5.5918e-04  0:07:10 1765
   236  1.6076e-03  4.4499e-03  3.2019e-03  1.1589e+00  1.2396e-03  2.3820e-03  5.4793e-04  0:05:44 1764
   237  1.5524e-03  4.4127e-03  3.1687e-03  1.1622e+00  1.1873e-03  2.3546e-03  5.3772e-04  0:04:35 1763
   238  1.5058e-03  4.3781e-03  3.1316e-03  1.1620e+00  1.1463e-03  2.3266e-03  5.3475e-04  0:03:40 1762
   239  1.4678e-03  4.3455e-03  3.0906e-03  1.1567e+00  1.1169e-03  2.2998e-03  5.2830e-04  0:02:56 1761
   240  1.4384e-03  4.3147e-03  3.0459e-03  1.1460e+00  1.0989e-03  2.2752e-03  5.2091e-04  0:02:21 1760
   241  1.4169e-03  4.2859e-03  2.9976e-03  1.1258e+00  1.0911e-03  2.2504e-03  5.1692e-04  0:01:52 1759
   242  1.4027e-03  4.2583e-03  2.9459e-03  1.0988e+00  1.0928e-03  2.2279e-03  5.1386e-04  0:01:30 1758

  iter  continuity  x-velocity  y-velocity  z-velocity      energy           k       omega     time/iter
   243  1.3943e-03  4.2318e-03  2.8911e-03  1.0646e+00  1.1014e-03  2.1994e-03  5.0857e-04  0:01:12 1757
   244  1.3904e-03  4.2057e-03  2.8336e-03  1.0270e+00  1.1153e-03  2.1697e-03  5.0620e-04  0:06:49 1756
   245  1.3903e-03  4.1799e-03  2.7738e-03  9.8625e-01  1.1332e-03  2.1382e-03  5.0069e-04  0:05:27 1755
   246  1.3929e-03  4.1543e-03  2.7120e-03  9.4343e-01  1.1537e-03  2.1083e-03  4.9572e-04  0:04:21 1754
   247  1.3971e-03  4.1286e-03  2.6488e-03  8.9471e-01  1.1753e-03  2.0804e-03  4.9113e-04  0:03:29 1753
   248  1.4014e-03  4.1031e-03  2.5843e-03  8.4387e-01  1.1964e-03  2.0558e-03  4.8812e-04  0:02:47 1752
   249  1.4051e-03  4.0772e-03  2.5189e-03  7.9393e-01  1.2161e-03  2.0370e-03  4.8466e-04  0:02:14 1751
   250  1.4082e-03  4.0506e-03  2.4532e-03  7.4535e-01  1.2344e-03  2.0227e-03  4.8141e-04  0:01:47 1750
   251  1.4102e-03  4.0233e-03  2.3873e-03  6.9955e-01  1.2508e-03  2.0064e-03  4.7890e-04  0:01:25 1749
   252  1.4109e-03  3.9952e-03  2.3214e-03  6.5608e-01  1.2652e-03  1.9951e-03  4.7590e-04  0:01:08 1748
   253  1.4103e-03  3.9662e-03  2.2558e-03  6.1641e-01  1.2776e-03  1.9904e-03  4.7397e-04  0:06:44 1747

  iter  continuity  x-velocity  y-velocity  z-velocity      energy           k       omega     time/iter
   254  1.4085e-03  3.9366e-03  2.1906e-03  5.7803e-01  1.2881e-03  1.9911e-03  4.7209e-04  0:05:23 1746
   255  1.4055e-03  3.9064e-03  2.1261e-03  5.4094e-01  1.2967e-03  2.0017e-03  4.7133e-04  0:04:18 1745
   256  1.4015e-03  3.8760e-03  2.0624e-03  5.0756e-01  1.3037e-03  2.0073e-03  4.7177e-04  0:03:26 1744
   257  1.3966e-03  3.8457e-03  1.9993e-03  4.7864e-01  1.3093e-03  2.0064e-03  4.7249e-04  0:02:45 1743
   258  1.3915e-03  3.8158e-03  1.9368e-03  4.5471e-01  1.3140e-03  2.0104e-03  4.7240e-04  0:02:12 1742
   259  1.3856e-03  3.7863e-03  1.8751e-03  4.3661e-01  1.3174e-03  2.0135e-03  4.7377e-04  0:01:46 1741
   260  1.3793e-03  3.7573e-03  1.8143e-03  4.2533e-01  1.3197e-03  2.0140e-03  4.7505e-04  0:01:24 1740
   261  1.3729e-03  3.7282e-03  1.7540e-03  4.2049e-01  1.3215e-03  2.0179e-03  4.7665e-04  0:01:07 1739
   262  1.3670e-03  3.6993e-03  1.6944e-03  4.2269e-01  1.3232e-03  2.0204e-03  4.7936e-04  0:06:42 1738
   263  1.3610e-03  3.6702e-03  1.6357e-03  4.3057e-01  1.3242e-03  2.0205e-03  4.8391e-04  0:05:21 1737
   264  1.3548e-03  3.6412e-03  1.5777e-03  4.4313e-01  1.3246e-03  2.0250e-03  4.8786e-04  0:04:17 1736

  iter  continuity  x-velocity  y-velocity  z-velocity      energy           k       omega     time/iter
   265  1.3481e-03  3.6123e-03  1.5202e-03  4.5932e-01  1.3239e-03  2.0319e-03  4.9104e-04  0:03:25 1735
   266  1.3407e-03  3.5836e-03  1.4633e-03  4.7863e-01  1.3220e-03  2.0449e-03  4.9547e-04  0:02:44 1734
   267  1.3326e-03  3.5552e-03  1.4073e-03  5.0059e-01  1.3187e-03  2.0564e-03  5.0124e-04  0:02:11 1733
   268  1.3234e-03  3.5270e-03  1.3520e-03  5.2534e-01  1.3140e-03  2.0693e-03  5.0903e-04  0:01:45 1732
   269  1.3128e-03  3.4989e-03  1.2977e-03  5.4899e-01  1.3074e-03  2.0855e-03  5.1339e-04  0:01:24 1731
   270  1.3005e-03  3.4709e-03  1.2439e-03  5.7304e-01  1.2986e-03  2.1083e-03  5.2016e-04  0:01:07 1730
   271  1.2864e-03  3.4428e-03  1.1910e-03  5.9569e-01  1.2875e-03  2.1364e-03  5.2625e-04  0:06:39 1729
   272  1.2704e-03  3.4146e-03  1.1391e-03  6.1662e-01  1.2741e-03  2.1619e-03  5.3033e-04  0:05:19 1728
   273  1.2524e-03  3.3865e-03  1.0885e-03  6.3594e-01  1.2584e-03  2.1874e-03  5.3354e-04  0:04:15 1727
   274  1.2315e-03  3.3580e-03  1.0393e-03  6.5265e-01  1.2393e-03  2.2099e-03  5.3626e-04  0:03:24 1726
   275  1.2079e-03  3.3295e-03  9.9234e-04  6.6540e-01  1.2172e-03  2.2350e-03  5.3855e-04  0:02:43 1725

  iter  continuity  x-velocity  y-velocity  z-velocity      energy           k       omega     time/iter
   276  1.1821e-03  3.3005e-03  9.4755e-04  6.7597e-01  1.1926e-03  2.2656e-03  5.4301e-04  0:02:11 1724
   277  1.1545e-03  3.2712e-03  9.0418e-04  6.8253e-01  1.1657e-03  2.2963e-03  5.4647e-04  0:01:44 1723
   278  1.1254e-03  3.2417e-03  8.6293e-04  6.8677e-01  1.1372e-03  2.3290e-03  5.4864e-04  0:01:23 1722
   279  1.0957e-03  3.2115e-03  8.2481e-04  6.8723e-01  1.1076e-03  2.3585e-03  5.4966e-04  0:01:07 1721
   280  1.0642e-03  3.1805e-03  7.9074e-04  6.8390e-01  1.0759e-03  2.3899e-03  5.4927e-04  0:06:37 1720
   281  1.0324e-03  3.1494e-03  7.6083e-04  6.7507e-01  1.0437e-03  2.4250e-03  5.4798e-04  0:05:18 1719
   282  1.0012e-03  3.1180e-03  7.3439e-04  6.6208e-01  1.0116e-03  2.4487e-03  5.4694e-04  0:04:14 1718
   283  9.6886e-04  3.0859e-03  7.1219e-04  6.4507e-01  9.7817e-04  2.4661e-03  5.4586e-04  0:03:23 1717
   284  9.3512e-04  3.0534e-03  6.9421e-04  6.2486e-01  9.4304e-04  2.4856e-03  5.4655e-04  0:02:42 1716
   285  9.0227e-04  3.0210e-03  6.8098e-04  6.0207e-01  9.0849e-04  2.5043e-03  5.4509e-04  0:02:10 1715
   286  8.7133e-04  2.9877e-03  6.7189e-04  5.7688e-01  8.7550e-04  2.5219e-03  5.3985e-04  0:01:44 1714

  iter  continuity  x-velocity  y-velocity  z-velocity      energy           k       omega     time/iter
   287  8.4066e-04  2.9543e-03  6.6643e-04  5.4968e-01  8.4251e-04  2.5361e-03  5.3662e-04  0:01:23 1713
   288  8.1174e-04  2.9208e-03  6.6446e-04  5.2167e-01  8.1099e-04  2.5526e-03  5.3317e-04  0:06:49 1712
   289  7.8411e-04  2.8866e-03  6.6591e-04  4.9281e-01  7.8050e-04  2.5695e-03  5.2894e-04  0:05:27 1711
   290  7.5757e-04  2.8514e-03  6.7011e-04  4.6321e-01  7.5088e-04  2.5852e-03  5.2317e-04  0:04:21 1710
   291  7.3280e-04  2.8161e-03  6.7662e-04  4.3387e-01  7.2282e-04  2.6006e-03  5.1866e-04  0:03:29 1709
   292  7.0978e-04  2.7809e-03  6.8492e-04  4.0366e-01  6.9638e-04  2.6136e-03  5.1446e-04  0:02:47 1708
   293  6.8889e-04  2.7459e-03  6.9453e-04  3.7270e-01  6.7198e-04  2.6222e-03  5.1149e-04  0:02:14 1707
   294  6.7008e-04  2.7109e-03  7.0512e-04  3.4213e-01  6.4966e-04  2.6281e-03  5.0813e-04  0:01:47 1706
   295  6.5331e-04  2.6763e-03  7.1623e-04  3.1269e-01  6.2944e-04  2.6366e-03  5.0574e-04  0:01:25 1705
   296  6.3859e-04  2.6419e-03  7.2716e-04  2.8513e-01  6.1142e-04  2.6474e-03  5.0377e-04  0:01:08 1704
   297  6.2619e-04  2.6080e-03  7.3767e-04  2.5987e-01  5.9592e-04  2.6560e-03  4.9979e-04  0:06:35 1703

  iter  continuity  x-velocity  y-velocity  z-velocity      energy           k       omega     time/iter
   298  6.1622e-04  2.5749e-03  7.4759e-04  2.3790e-01  5.8314e-04  2.6648e-03  4.9552e-04  0:05:16 1702
   299  6.0900e-04  2.5427e-03  7.5666e-04  2.2117e-01  5.7349e-04  2.6733e-03  4.9212e-04  0:04:13 1701
   300  6.0434e-04  2.5114e-03  7.6460e-04  2.1100e-01  5.6685e-04  2.6826e-03  4.8921e-04  0:03:22 1700
   301  6.0224e-04  2.4809e-03  7.7130e-04  2.0840e-01  5.6326e-04  2.6844e-03  4.8716e-04  0:02:41 1699
   302  6.0270e-04  2.4509e-03  7.7665e-04  2.1324e-01  5.6273e-04  2.6856e-03  4.8535e-04  0:02:09 1698
   303  6.0536e-04  2.4213e-03  7.8043e-04  2.2389e-01  5.6491e-04  2.6901e-03  4.8502e-04  0:01:43 1697
   304  6.1010e-04  2.3917e-03  7.8272e-04  2.3866e-01  5.6966e-04  2.7013e-03  4.8249e-04  0:01:23 1696
   305  6.1653e-04  2.3620e-03  7.8359e-04  2.5501e-01  5.7654e-04  2.7148e-03  4.7966e-04  0:01:06 1695
   306  6.2460e-04  2.3324e-03  7.8308e-04  2.7138e-01  5.8545e-04  2.7230e-03  4.7714e-04  0:06:32 1694
   307  6.3419e-04  2.3031e-03  7.8117e-04  2.8653e-01  5.9621e-04  2.7271e-03  4.7463e-04  0:05:13 1693
   308  6.4528e-04  2.2741e-03  7.7795e-04  2.9998e-01  6.0872e-04  2.7244e-03  4.7125e-04  0:04:10 1692

  iter  continuity  x-velocity  y-velocity  z-velocity      energy           k       omega     time/iter
   309  6.5748e-04  2.2455e-03  7.7347e-04  3.1175e-01  6.2251e-04  2.7182e-03  4.6702e-04  0:03:20 1691
   310  6.7048e-04  2.2172e-03  7.6794e-04  3.2298e-01  6.3723e-04  2.7121e-03  4.6384e-04  0:02:40 1690
   311  6.8374e-04  2.1894e-03  7.6135e-04  3.3313e-01  6.5223e-04  2.7115e-03  4.5937e-04  0:02:08 1689
   312  6.9703e-04  2.1618e-03  7.5366e-04  3.4244e-01  6.6724e-04  2.7145e-03  4.5458e-04  0:01:42 1688
   313  7.1083e-04  2.1342e-03  7.4512e-04  3.5006e-01  6.8266e-04  2.7061e-03  4.4960e-04  0:01:22 1687
   314  7.2487e-04  2.1068e-03  7.3583e-04  3.5597e-01  6.9821e-04  2.6912e-03  4.4311e-04  0:01:05 1686
   315  7.3847e-04  2.0799e-03  7.2590e-04  3.6014e-01  7.1313e-04  2.6782e-03  4.3955e-04  0:06:29 1685
   316  7.5154e-04  2.0532e-03  7.1548e-04  3.6236e-01  7.2732e-04  2.6708e-03  4.3592e-04  0:05:11 1684
   317  7.6457e-04  2.0269e-03  7.0474e-04  3.6317e-01  7.4123e-04  2.6562e-03  4.3173e-04  0:04:09 1683
   318  7.7760e-04  2.0009e-03  6.9391e-04  3.6197e-01  7.5490e-04  2.6387e-03  4.2719e-04  0:03:19 1682
   319  7.9080e-04  1.9753e-03  6.8306e-04  3.5944e-01  7.6850e-04  2.6231e-03  4.2284e-04  0:02:39 1681

  iter  continuity  x-velocity  y-velocity  z-velocity      energy           k       omega     time/iter
   320  8.0325e-04  1.9503e-03  6.7228e-04  3.5537e-01  7.8105e-04  2.6104e-03  4.1876e-04  0:02:07 1680
   321  8.1527e-04  1.9257e-03  6.6214e-04  3.4965e-01  7.9289e-04  2.5983e-03  4.1649e-04  0:01:42 1679
   322  8.2699e-04  1.9016e-03  6.5290e-04  3.4233e-01  8.0419e-04  2.5865e-03  4.1429e-04  0:01:21 1678
   323  8.3903e-04  1.8782e-03  6.4479e-04  3.3347e-01  8.1555e-04  2.5718e-03  4.1128e-04  0:01:05 1677
   324  8.5110e-04  1.8555e-03  6.3807e-04  3.2383e-01  8.2673e-04  2.5592e-03  4.1009e-04  0:06:27 1676
   325  8.6227e-04  1.8335e-03  6.3322e-04  3.1389e-01  8.3675e-04  2.5507e-03  4.0785e-04  0:05:10 1675
   326  8.7223e-04  1.8126e-03  6.3009e-04  3.0370e-01  8.4534e-04  2.5423e-03  4.0626e-04  0:04:07 1674
   327  8.8176e-04  1.7929e-03  6.2885e-04  2.9388e-01  8.5327e-04  2.5374e-03  4.0385e-04  0:03:18 1673
   328  8.9102e-04  1.7743e-03  6.2963e-04  2.8427e-01  8.6073e-04  2.5342e-03  4.0192e-04  0:02:38 1672
   329  8.9959e-04  1.7569e-03  6.3243e-04  2.7496e-01  8.6731e-04  2.5250e-03  4.0038e-04  0:02:06 1671
   330  9.0820e-04  1.7407e-03  6.3754e-04  2.6635e-01  8.7377e-04  2.5162e-03  3.9876e-04  0:01:41 1670

  iter  continuity  x-velocity  y-velocity  z-velocity      energy           k       omega     time/iter
   331  9.1572e-04  1.7257e-03  6.4494e-04  2.5838e-01  8.7893e-04  2.5149e-03  3.9621e-04  0:01:21 1669
   332  9.2362e-04  1.7120e-03  6.5465e-04  2.5135e-01  8.8432e-04  2.5094e-03  3.9431e-04  0:01:05 1668
   333  9.3131e-04  1.6996e-03  6.6668e-04  2.4546e-01  8.8933e-04  2.5035e-03  3.9200e-04  0:06:25 1667
   334  9.3790e-04  1.6884e-03  6.8098e-04  2.4067e-01  8.9302e-04  2.4968e-03  3.8968e-04  0:05:08 1666
   335  9.4526e-04  1.6785e-03  6.9756e-04  2.3691e-01  8.9731e-04  2.4822e-03  3.8793e-04  0:04:06 1665
   336  9.5137e-04  1.6698e-03  7.1627e-04  2.3440e-01  9.0011e-04  2.4630e-03  3.8538e-04  0:03:17 1664
   337  9.5696e-04  1.6622e-03  7.3704e-04  2.3310e-01  9.0213e-04  2.4384e-03  3.8280e-04  0:02:37 1663
   338  9.6241e-04  1.6555e-03  7.5971e-04  2.3306e-01  9.0377e-04  2.4164e-03  3.8035e-04  0:02:06 1662
   339  9.6823e-04  1.6500e-03  7.8434e-04  2.3412e-01  9.0553e-04  2.3985e-03  3.7792e-04  0:01:41 1661
   340  9.7445e-04  1.6454e-03  8.1071e-04  2.3588e-01  9.0744e-04  2.3862e-03  3.7610e-04  0:01:20 1660
   341  9.8113e-04  1.6417e-03  8.3865e-04  2.3836e-01  9.0958e-04  2.3774e-03  3.7454e-04  0:06:36 1659

  iter  continuity  x-velocity  y-velocity  z-velocity      energy           k       omega     time/iter
   342  9.8842e-04  1.6387e-03  8.6805e-04  2.4133e-01  9.1210e-04  2.3673e-03  3.7213e-04  0:05:17 1658
   343  9.9619e-04  1.6364e-03  8.9874e-04  2.4467e-01  9.1488e-04  2.3571e-03  3.6935e-04  0:04:13 1657
   344  1.0046e-03  1.6346e-03  9.3059e-04  2.4804e-01  9.1811e-04  2.3459e-03  3.6642e-04  0:03:22 1656
   345  1.0134e-03  1.6334e-03  9.6345e-04  2.5167e-01  9.2155e-04  2.3341e-03  3.6332e-04  0:02:42 1655
   346  1.0223e-03  1.6325e-03  9.9721e-04  2.5566e-01  9.2490e-04  2.3208e-03  3.6022e-04  0:02:09 1654
   347  1.0320e-03  1.6319e-03  1.0317e-03  2.6022e-01  9.2890e-04  2.3072e-03  3.5889e-04  0:01:43 1653
   348  1.0420e-03  1.6317e-03  1.0669e-03  2.6522e-01  9.3314e-04  2.2919e-03  3.5852e-04  0:06:53 1652
   349  1.0520e-03  1.6317e-03  1.1024e-03  2.7050e-01  9.3737e-04  2.2792e-03  3.5811e-04  0:05:30 1651
   350  1.0620e-03  1.6318e-03  1.1382e-03  2.7636e-01  9.4145e-04  2.2663e-03  3.5775e-04  0:04:24 1650
   351  1.0718e-03  1.6318e-03  1.1741e-03  2.8272e-01  9.4542e-04  2.2556e-03  3.5676e-04  0:03:31 1649
   352  1.0817e-03  1.6317e-03  1.2100e-03  2.8948e-01  9.4938e-04  2.2513e-03  3.5467e-04  0:02:49 1648

  iter  continuity  x-velocity  y-velocity  z-velocity      energy           k       omega     time/iter
   353  1.0909e-03  1.6313e-03  1.2456e-03  2.9674e-01  9.5269e-04  2.2458e-03  3.5367e-04  0:02:15 1647
   354  1.0998e-03  1.6307e-03  1.2809e-03  3.0452e-01  9.5588e-04  2.2400e-03  3.5175e-04  0:01:48 1646
   355  1.1083e-03  1.6299e-03  1.3157e-03  3.1273e-01  9.5873e-04  2.2323e-03  3.4988e-04  0:01:26 1645
   356  1.1163e-03  1.6288e-03  1.3498e-03  3.2147e-01  9.6111e-04  2.2240e-03  3.4795e-04  0:01:09 1644
   357  1.1235e-03  1.6277e-03  1.3831e-03  3.3052e-01  9.6293e-04  2.2161e-03  3.4628e-04  0:06:24 1643
   358  1.1300e-03  1.6264e-03  1.4155e-03  3.3956e-01  9.6417e-04  2.2140e-03  3.4552e-04  0:05:07 1642
   359  1.1358e-03  1.6249e-03  1.4469e-03  3.4861e-01  9.6483e-04  2.2181e-03  3.4458e-04  0:04:05 1641
   360  1.1409e-03  1.6234e-03  1.4772e-03  3.5764e-01  9.6504e-04  2.2254e-03  3.4335e-04  0:03:16 1640
   361  1.1454e-03  1.6217e-03  1.5062e-03  3.6646e-01  9.6483e-04  2.2256e-03  3.4076e-04  0:02:37 1639
   362  1.1492e-03  1.6200e-03  1.5340e-03  3.7500e-01  9.6413e-04  2.2198e-03  3.3948e-04  0:02:05 1638
   363  1.1524e-03  1.6185e-03  1.5604e-03  3.8315e-01  9.6302e-04  2.2095e-03  3.3854e-04  0:01:40 1637

  iter  continuity  x-velocity  y-velocity  z-velocity      energy           k       omega     time/iter
   364  1.1550e-03  1.6171e-03  1.5854e-03  3.9092e-01  9.6159e-04  2.1980e-03  3.3670e-04  0:01:20 1636
   365  1.1572e-03  1.6159e-03  1.6089e-03  3.9814e-01  9.5999e-04  2.1810e-03  3.3351e-04  0:01:04 1635
   366  1.1590e-03  1.6149e-03  1.6310e-03  4.0473e-01  9.5828e-04  2.1642e-03  3.2996e-04  0:06:18 1634
   367  1.1606e-03  1.6142e-03  1.6516e-03  4.1050e-01  9.5659e-04  2.1529e-03  3.2624e-04  0:05:02 1633
   368  1.1619e-03  1.6138e-03  1.6707e-03  4.1538e-01  9.5497e-04  2.1400e-03  3.2298e-04  0:04:02 1632
   369  1.1630e-03  1.6138e-03  1.6882e-03  4.1918e-01  9.5340e-04  2.1247e-03  3.1951e-04  0:03:13 1631
   370  1.1638e-03  1.6142e-03  1.7042e-03  4.2215e-01  9.5190e-04  2.1143e-03  3.1583e-04  0:02:34 1630
   371  1.1645e-03  1.6149e-03  1.7187e-03  4.2387e-01  9.5049e-04  2.1033e-03  3.1227e-04  0:02:03 1629
   372  1.1651e-03  1.6159e-03  1.7316e-03  4.2443e-01  9.4922e-04  2.0867e-03  3.0946e-04  0:01:39 1628
   373  1.1656e-03  1.6172e-03  1.7431e-03  4.2400e-01  9.4814e-04  2.0679e-03  3.0652e-04  0:06:44 1627
   374  1.1655e-03  1.6185e-03  1.7531e-03  4.2307e-01  9.4656e-04  2.0477e-03  3.0310e-04  0:05:23 1626

  iter  continuity  x-velocity  y-velocity  z-velocity      energy           k       omega     time/iter
   375  1.1652e-03  1.6197e-03  1.7617e-03  4.2157e-01  9.4503e-04  2.0303e-03  2.9984e-04  0:04:18 1625
   376  1.1652e-03  1.6210e-03  1.7689e-03  4.1942e-01  9.4408e-04  2.0159e-03  2.9619e-04  0:03:27 1624
   377  1.1648e-03  1.6223e-03  1.7748e-03  4.1674e-01  9.4285e-04  2.0067e-03  2.9232e-04  0:02:45 1623
   378  1.1641e-03  1.6235e-03  1.7794e-03  4.1345e-01  9.4139e-04  1.9979e-03  2.8871e-04  0:02:12 1622
   379  1.1630e-03  1.6246e-03  1.7829e-03  4.0966e-01  9.3973e-04  1.9870e-03  2.8618e-04  0:07:10 1621
   380  1.1619e-03  1.6254e-03  1.7854e-03  4.0562e-01  9.3812e-04  1.9750e-03  2.8388e-04  0:05:44 1620
   381  1.1607e-03  1.6260e-03  1.7868e-03  4.0133e-01  9.3658e-04  1.9617e-03  2.7981e-04  0:04:35 1619
   382  1.1596e-03  1.6262e-03  1.7873e-03  3.9731e-01  9.3514e-04  1.9498e-03  2.7634e-04  0:03:40 1618
   383  1.1585e-03  1.6260e-03  1.7869e-03  3.9354e-01  9.3392e-04  1.9389e-03  2.7262e-04  0:02:56 1617
   384  1.1575e-03  1.6254e-03  1.7858e-03  3.8989e-01  9.3288e-04  1.9261e-03  2.6910e-04  0:02:20 1616
   385  1.1566e-03  1.6244e-03  1.7839e-03  3.8619e-01  9.3190e-04  1.9118e-03  2.6518e-04  0:07:15 1615

  iter  continuity  x-velocity  y-velocity  z-velocity      energy           k       omega     time/iter
   386  1.1557e-03  1.6230e-03  1.7813e-03  3.8205e-01  9.3099e-04  1.8966e-03  2.6231e-04  0:05:48 1614
   387  1.1549e-03  1.6211e-03  1.7783e-03  3.7774e-01  9.3023e-04  1.8821e-03  2.5989e-04  0:04:38 1613
   388  1.1543e-03  1.6189e-03  1.7748e-03  3.7353e-01  9.2969e-04  1.8683e-03  2.5797e-04  0:03:42 1612
   389  1.1538e-03  1.6162e-03  1.7709e-03  3.6982e-01  9.2921e-04  1.8556e-03  2.5614e-04  0:02:58 1611
   390  1.1534e-03  1.6133e-03  1.7668e-03  3.6659e-01  9.2883e-04  1.8441e-03  2.5417e-04  0:07:44 1610
   391  1.1532e-03  1.6101e-03  1.7626e-03  3.6388e-01  9.2857e-04  1.8335e-03  2.5100e-04  0:06:11 1609
   392  1.1532e-03  1.6066e-03  1.7584e-03  3.6170e-01  9.2848e-04  1.8254e-03  2.4882e-04  0:04:57 1608
   393  1.1536e-03  1.6028e-03  1.7542e-03  3.6003e-01  9.2869e-04  1.8167e-03  2.4765e-04  0:03:57 1607
   394  1.1542e-03  1.5987e-03  1.7501e-03  3.5872e-01  9.2906e-04  1.8072e-03  2.4611e-04  0:03:10 1606
   395  1.1550e-03  1.5944e-03  1.7462e-03  3.5761e-01  9.2966e-04  1.7996e-03  2.4457e-04  0:02:32 1605
   396  1.1563e-03  1.5898e-03  1.7425e-03  3.5657e-01  9.3063e-04  1.7884e-03  2.4281e-04  0:07:22 1604

  iter  continuity  x-velocity  y-velocity  z-velocity      energy           k       omega     time/iter
   397  1.1579e-03  1.5852e-03  1.7391e-03  3.5534e-01  9.3172e-04  1.7756e-03  2.4087e-04  0:05:53 1603
   398  1.1596e-03  1.5806e-03  1.7359e-03  3.5362e-01  9.3288e-04  1.7613e-03  2.3897e-04  0:04:43 1602
   399  1.1616e-03  1.5759e-03  1.7330e-03  3.5131e-01  9.3412e-04  1.7450e-03  2.3720e-04  0:03:46 1601
   400  1.1638e-03  1.5711e-03  1.7306e-03  3.4840e-01  9.3552e-04  1.7277e-03  2.3522e-04  0:03:01 1600
   401  1.1663e-03  1.5665e-03  1.7285e-03  3.4510e-01  9.3708e-04  1.7097e-03  2.3422e-04  0:02:24 1599
   402  1.1690e-03  1.5621e-03  1.7269e-03  3.4154e-01  9.3876e-04  1.6897e-03  2.3237e-04  0:07:15 1598
   403  1.1721e-03  1.5579e-03  1.7259e-03  3.3790e-01  9.4061e-04  1.6717e-03  2.3034e-04  0:05:48 1597
   404  1.1754e-03  1.5541e-03  1.7254e-03  3.3431e-01  9.4263e-04  1.6550e-03  2.2887e-04  0:04:38 1596
   405  1.1790e-03  1.5506e-03  1.7254e-03  3.3074e-01  9.4479e-04  1.6380e-03  2.2706e-04  0:03:42 1595
   406  1.1829e-03  1.5475e-03  1.7261e-03  3.2708e-01  9.4707e-04  1.6217e-03  2.2527e-04  0:02:58 1594
   407  1.1869e-03  1.5449e-03  1.7274e-03  3.2323e-01  9.4945e-04  1.6073e-03  2.2358e-04  0:02:22 1593

  iter  continuity  x-velocity  y-velocity  z-velocity      energy           k       omega     time/iter
   408  1.1912e-03  1.5429e-03  1.7294e-03  3.1906e-01  9.5193e-04  1.5899e-03  2.2198e-04  0:07:12 1592
   409  1.1957e-03  1.5414e-03  1.7321e-03  3.1454e-01  9.5450e-04  1.5694e-03  2.2032e-04  0:05:45 1591
   410  1.2004e-03  1.5407e-03  1.7354e-03  3.0968e-01  9.5720e-04  1.5468e-03  2.1921e-04  0:04:36 1590
   411  1.2053e-03  1.5407e-03  1.7394e-03  3.0458e-01  9.6006e-04  1.5231e-03  2.1767e-04  0:03:41 1589
   412  1.2105e-03  1.5415e-03  1.7440e-03  2.9937e-01  9.6305e-04  1.4999e-03  2.1576e-04  0:02:57 1588
   413  1.2159e-03  1.5431e-03  1.7491e-03  2.9411e-01  9.6616e-04  1.4809e-03  2.1502e-04  0:02:21 1587
   414  1.2215e-03  1.5456e-03  1.7548e-03  2.8889e-01  9.6940e-04  1.4672e-03  2.1368e-04  0:07:10 1586
   415  1.2272e-03  1.5490e-03  1.7611e-03  2.8378e-01  9.7275e-04  1.4559e-03  2.1212e-04  0:05:44 1585
   416  1.2331e-03  1.5534e-03  1.7678e-03  2.7895e-01  9.7621e-04  1.4461e-03  2.1058e-04  0:04:35 1584
   417  1.2391e-03  1.5588e-03  1.7752e-03  2.7443e-01  9.7978e-04  1.4368e-03  2.0907e-04  0:03:40 1583
   418  1.2453e-03  1.5653e-03  1.7830e-03  2.7029e-01  9.8344e-04  1.4280e-03  2.0701e-04  0:02:56 1582

  iter  continuity  x-velocity  y-velocity  z-velocity      energy           k       omega     time/iter
   419  1.2516e-03  1.5730e-03  1.7913e-03  2.6655e-01  9.8718e-04  1.4183e-03  2.0512e-04  0:07:37 1581
   420  1.2579e-03  1.5818e-03  1.8000e-03  2.6329e-01  9.9099e-04  1.4069e-03  2.0405e-04  0:06:05 1580
   421  1.2640e-03  1.5836e-03  1.8086e-03  2.6052e-01  9.9450e-04  1.3940e-03  2.0313e-04  0:04:52 1579
   422  1.2705e-03  1.5694e-03  1.8196e-03  2.5820e-01  9.9840e-04  1.3811e-03  2.0132e-04  0:03:53 1578
   423  1.2753e-03  1.5673e-03  1.8273e-03  2.5633e-01  1.0006e-03  1.3673e-03  1.9951e-04  0:03:07 1577
   424  1.2784e-03  1.5534e-03  1.8353e-03  2.5479e-01  1.0007e-03  1.3524e-03  1.9768e-04  0:07:44 1576
   425  1.2813e-03  1.5397e-03  1.8437e-03  2.5354e-01  1.0008e-03  1.3358e-03  1.9624e-04  0:06:11 1575
   426  1.2846e-03  1.5300e-03  1.8521e-03  2.5255e-01  1.0013e-03  1.3182e-03  1.9467e-04  0:04:57 1574
   427  1.2881e-03  1.5242e-03  1.8606e-03  2.5204e-01  1.0021e-03  1.2995e-03  1.9306e-04  0:03:57 1573
   428  1.2914e-03  1.5210e-03  1.8691e-03  2.5274e-01  1.0028e-03  1.2825e-03  1.9114e-04  0:03:10 1572
   429  1.2944e-03  1.5193e-03  1.8775e-03  2.5456e-01  1.0033e-03  1.2661e-03  1.8964e-04  0:07:46 1571

  iter  continuity  x-velocity  y-velocity  z-velocity      energy           k       omega     time/iter
   430  1.2971e-03  1.5187e-03  1.8856e-03  2.5741e-01  1.0036e-03  1.2506e-03  1.8822e-04  0:06:12 1570
   431  1.2995e-03  1.5186e-03  1.8935e-03  2.6200e-01  1.0035e-03  1.2354e-03  1.8660e-04  0:04:58 1569
   432  1.3014e-03  1.5189e-03  1.9010e-03  2.6656e-01  1.0031e-03  1.2185e-03  1.8485e-04  0:03:58 1568
   433  1.3029e-03  1.5195e-03  1.9082e-03  2.7009e-01  1.0023e-03  1.2010e-03  1.8303e-04  0:03:10 1567
   434  1.3039e-03  1.5202e-03  1.9149e-03  2.7225e-01  1.0011e-03  1.1848e-03  1.8127e-04  0:02:32 1566
   435  1.3044e-03  1.5211e-03  1.9210e-03  2.7322e-01  9.9950e-04  1.1696e-03  1.7877e-04  0:07:15 1565
   436  1.3044e-03  1.5224e-03  1.9267e-03  2.7323e-01  9.9753e-04  1.1556e-03  1.7649e-04  0:05:48 1564
   437  1.3040e-03  1.5238e-03  1.9317e-03  2.7263e-01  9.9515e-04  1.1413e-03  1.7421e-04  0:04:38 1563
   438  1.3030e-03  1.5253e-03  1.9362e-03  2.7197e-01  9.9236e-04  1.1261e-03  1.7213e-04  0:03:42 1562
   439  1.3015e-03  1.5268e-03  1.9400e-03  2.7133e-01  9.8917e-04  1.1103e-03  1.6990e-04  0:02:58 1561
   440  1.2996e-03  1.5283e-03  1.9432e-03  2.7070e-01  9.8561e-04  1.0941e-03  1.6719e-04  0:02:22 1560

  iter  continuity  x-velocity  y-velocity  z-velocity      energy           k       omega     time/iter
   441  1.2972e-03  1.5308e-03  1.9457e-03  2.7015e-01  9.8176e-04  1.0788e-03  1.6544e-04  0:07:05 1559
   442  1.2944e-03  1.5344e-03  1.9474e-03  2.6973e-01  9.7760e-04  1.0633e-03  1.6423e-04  0:05:40 1558
   443  1.2910e-03  1.5365e-03  1.9486e-03  2.6923e-01  9.7302e-04  1.0473e-03  1.6234e-04  0:04:32 1557
   444  1.2872e-03  1.5380e-03  1.9491e-03  2.6836e-01  9.6810e-04  1.0332e-03  1.6115e-04  0:03:37 1556
   445  1.2830e-03  1.5393e-03  1.9489e-03  2.6696e-01  9.6288e-04  1.0204e-03  1.5969e-04  0:02:54 1555
   446  1.2783e-03  1.5404e-03  1.9479e-03  2.6507e-01  9.5742e-04  1.0085e-03  1.5817e-04  0:02:19 1554
   447  1.2733e-03  1.5415e-03  1.9463e-03  2.6275e-01  9.5175e-04  9.9602e-04  1.5646e-04  0:07:02 1553
   448  1.2680e-03  1.5425e-03  1.9439e-03  2.6010e-01  9.4590e-04  9.8363e-04  1.5484e-04  0:05:37 1552
   449  1.2624e-03  1.5433e-03  1.9408e-03  2.5724e-01  9.3989e-04  9.7112e-04  1.5336e-04  0:04:30 1551
   450  1.2565e-03  1.5439e-03  1.9369e-03  2.5420e-01  9.3375e-04  9.5849e-04  1.5201e-04  0:03:35 1550
   451  1.2504e-03  1.5442e-03  1.9323e-03  2.5101e-01  9.2749e-04  9.4663e-04  1.5070e-04  0:02:52 1549

  iter  continuity  x-velocity  y-velocity  z-velocity      energy           k       omega     time/iter
   452  1.2441e-03  1.5444e-03  1.9269e-03  2.4773e-01  9.2113e-04  9.3670e-04  1.4941e-04  0:02:18 1548
   453  1.2375e-03  1.5444e-03  1.9209e-03  2.4430e-01  9.1470e-04  9.2561e-04  1.4823e-04  0:07:00 1547
   454  1.2308e-03  1.5442e-03  1.9142e-03  2.4069e-01  9.0824e-04  9.1361e-04  1.4705e-04  0:05:35 1546
   455  1.2240e-03  1.5437e-03  1.9068e-03  2.3697e-01  9.0179e-04  9.0130e-04  1.4575e-04  0:04:28 1545
   456  1.2171e-03  1.5462e-03  1.8987e-03  2.3321e-01  8.9537e-04  8.8944e-04  1.4440e-04  0:03:34 1544
   457  1.2108e-03  1.5415e-03  1.8907e-03  2.2950e-01  8.8956e-04  8.7825e-04  1.4323e-04  0:02:51 1543
   458  1.2040e-03  1.5405e-03  1.8817e-03  2.2577e-01  8.8348e-04  8.6988e-04  1.4211e-04  0:02:17 1542
   459  1.1970e-03  1.5394e-03  1.8719e-03  2.2209e-01  8.7722e-04  8.5965e-04  1.4114e-04  0:06:58 1541
   460  1.1898e-03  1.5376e-03  1.8616e-03  2.1851e-01  8.7094e-04  8.4996e-04  1.4008e-04  0:05:34 1540
   461  1.1826e-03  1.5355e-03  1.8510e-03  2.1501e-01  8.6476e-04  8.4096e-04  1.3891e-04  0:04:27 1539
   462  1.1758e-03  1.5330e-03  1.8405e-03  2.1156e-01  8.5902e-04  8.3201e-04  1.3797e-04  0:03:33 1538

  iter  continuity  x-velocity  y-velocity  z-velocity      energy           k       omega     time/iter
   463  1.1691e-03  1.5300e-03  1.8307e-03  2.0827e-01  8.5351e-04  8.2258e-04  1.3712e-04  0:02:51 1537
   464  1.1624e-03  1.5258e-03  1.8203e-03  2.0497e-01  8.4807e-04  8.1204e-04  1.3643e-04  0:02:16 1536
   465  1.1559e-03  1.5220e-03  1.8095e-03  2.0168e-01  8.4284e-04  8.0146e-04  1.3571e-04  0:06:56 1535
   466  1.1495e-03  1.5182e-03  1.7982e-03  1.9842e-01  8.3781e-04  7.8950e-04  1.3506e-04  0:05:33 1534
   467  1.1433e-03  1.5143e-03  1.7866e-03  1.9526e-01  8.3298e-04  7.7827e-04  1.3438e-04  0:04:26 1533
   468  1.1372e-03  1.5091e-03  1.7749e-03  1.9214e-01  8.2827e-04  7.6793e-04  1.3366e-04  0:03:33 1532
   469  1.1312e-03  1.5029e-03  1.7633e-03  1.8907e-01  8.2366e-04  7.5829e-04  1.3306e-04  0:02:50 1531
   470  1.1252e-03  1.4974e-03  1.7513e-03  1.8605e-01  8.1918e-04  7.4933e-04  1.3228e-04  0:02:16 1530
   471  1.1195e-03  1.4919e-03  1.7388e-03  1.8306e-01  8.1485e-04  7.4052e-04  1.3157e-04  0:06:54 1529
   472  1.1139e-03  1.4860e-03  1.7262e-03  1.8011e-01  8.1068e-04  7.3200e-04  1.3105e-04  0:05:31 1528
   473  1.1085e-03  1.4798e-03  1.7135e-03  1.7719e-01  8.0668e-04  7.2365e-04  1.3024e-04  0:04:25 1527

  iter  continuity  x-velocity  y-velocity  z-velocity      energy           k       omega     time/iter
   474  1.1032e-03  1.4732e-03  1.7008e-03  1.7427e-01  8.0284e-04  7.1560e-04  1.2946e-04  0:03:32 1526
   475  1.0982e-03  1.4663e-03  1.6882e-03  1.7136e-01  7.9918e-04  7.0754e-04  1.2872e-04  0:02:49 1525
   476  1.0933e-03  1.4593e-03  1.6757e-03  1.6850e-01  7.9566e-04  6.9937e-04  1.2807e-04  0:02:15 1524
   477  1.0886e-03  1.4521e-03  1.6634e-03  1.6566e-01  7.9231e-04  6.9107e-04  1.2744e-04  0:06:53 1523
   478  1.0841e-03  1.4449e-03  1.6514e-03  1.6291e-01  7.8910e-04  6.8287e-04  1.2711e-04  0:05:30 1522
   479  1.0797e-03  1.4376e-03  1.6396e-03  1.6017e-01  7.8605e-04  6.7503e-04  1.2674e-04  0:04:24 1521
   480  1.0751e-03  1.4260e-03  1.6274e-03  1.5743e-01  7.8260e-04  6.6745e-04  1.2627e-04  0:03:31 1520
   481  1.0706e-03  1.4162e-03  1.6157e-03  1.5465e-01  7.7936e-04  6.6019e-04  1.2525e-04  0:02:49 1519
   482  1.0665e-03  1.4079e-03  1.6048e-03  1.5192e-01  7.7652e-04  6.5462e-04  1.2442e-04  0:02:15 1518
   483  1.0628e-03  1.4003e-03  1.5947e-03  1.4926e-01  7.7400e-04  6.4988e-04  1.2377e-04  0:06:51 1517
   484  1.0593e-03  1.3931e-03  1.5850e-03  1.4661e-01  7.7167e-04  6.4466e-04  1.2287e-04  0:05:29 1516

  iter  continuity  x-velocity  y-velocity  z-velocity      energy           k       omega     time/iter
   485  1.0561e-03  1.3861e-03  1.5758e-03  1.4404e-01  7.6961e-04  6.3905e-04  1.2196e-04  0:04:23 1515
   486  1.0531e-03  1.3795e-03  1.5669e-03  1.4154e-01  7.6772e-04  6.3337e-04  1.2068e-04  0:03:30 1514
   487  1.0503e-03  1.3731e-03  1.5584e-03  1.3913e-01  7.6596e-04  6.2725e-04  1.2004e-04  0:02:48 1513
   488  1.0477e-03  1.3669e-03  1.5501e-03  1.3679e-01  7.6432e-04  6.2433e-04  1.1922e-04  0:02:14 1512
   489  1.0452e-03  1.3609e-03  1.5420e-03  1.3453e-01  7.6281e-04  6.1963e-04  1.1833e-04  0:06:50 1511
   490  1.0428e-03  1.3552e-03  1.5342e-03  1.3235e-01  7.6138e-04  6.1421e-04  1.1738e-04  0:05:27 1510
   491  1.0405e-03  1.3498e-03  1.5267e-03  1.3028e-01  7.5998e-04  6.0959e-04  1.1637e-04  0:04:22 1509
   492  1.0382e-03  1.3447e-03  1.5195e-03  1.2834e-01  7.5859e-04  6.0499e-04  1.1537e-04  0:03:29 1508
   493  1.0360e-03  1.3399e-03  1.5125e-03  1.2652e-01  7.5723e-04  6.0005e-04  1.1433e-04  0:02:47 1507
   494  1.0339e-03  1.3353e-03  1.5057e-03  1.2478e-01  7.5592e-04  5.9476e-04  1.1327e-04  0:02:14 1506
   495  1.0318e-03  1.3310e-03  1.4992e-03  1.2308e-01  7.5464e-04  5.8938e-04  1.1223e-04  0:06:48 1505

  iter  continuity  x-velocity  y-velocity  z-velocity      energy           k       omega     time/iter
   496  1.0298e-03  1.3269e-03  1.4930e-03  1.2145e-01  7.5338e-04  5.8401e-04  1.1129e-04  0:05:26 1504
   497  1.0278e-03  1.3230e-03  1.4870e-03  1.1990e-01  7.5212e-04  5.7842e-04  1.1033e-04  0:04:21 1503
   498  1.0258e-03  1.3195e-03  1.4812e-03  1.1841e-01  7.5085e-04  5.7272e-04  1.0936e-04  0:03:28 1502
   499  1.0237e-03  1.3163e-03  1.4757e-03  1.1697e-01  7.4954e-04  5.6674e-04  1.0834e-04  0:02:47 1501
   500  1.0217e-03  1.3134e-03  1.4704e-03  1.1556e-01  7.4820e-04  5.6059e-04  1.0723e-04  0:07:13 1500
   501  1.0196e-03  1.3107e-03  1.4653e-03  1.1418e-01  7.4678e-04  5.5438e-04  1.0608e-04  0:05:46 1499
   502  1.0174e-03  1.3084e-03  1.4605e-03  1.1285e-01  7.4530e-04  5.4816e-04  1.0507e-04  0:04:37 1498
   503  1.0152e-03  1.3063e-03  1.4559e-03  1.1158e-01  7.4382e-04  5.4187e-04  1.0421e-04  0:03:41 1497
   504  1.0130e-03  1.3044e-03  1.4515e-03  1.1038e-01  7.4229e-04  5.3559e-04  1.0325e-04  0:02:57 1496
   505  1.0107e-03  1.3028e-03  1.4474e-03  1.0927e-01  7.4073e-04  5.2961e-04  1.0228e-04  0:02:21 1495
   506  1.0085e-03  1.3029e-03  1.4433e-03  1.0824e-01  7.3924e-04  5.2409e-04  1.0135e-04  0:06:52 1494

  iter  continuity  x-velocity  y-velocity  z-velocity      energy           k       omega     time/iter
   507  1.0061e-03  1.3023e-03  1.4396e-03  1.0729e-01  7.3760e-04  5.1873e-04  1.0050e-04  0:05:29 1493
   508  1.0037e-03  1.3017e-03  1.4362e-03  1.0640e-01  7.3591e-04  5.1324e-04  9.9558e-05  0:04:23 1492
   509  1.0013e-03  1.3014e-03  1.4330e-03  1.0590e-01  7.3422e-04  5.0760e-04  9.8792e-05  0:03:30 1491
   510  9.9891e-04  1.3036e-03  1.4305e-03  1.0565e-01  7.3258e-04  5.0199e-04  9.7937e-05  0:02:48 1490
   511  9.9658e-04  1.3127e-03  1.4289e-03  1.0540e-01  7.3105e-04  4.9653e-04  9.7154e-05  0:02:15 1489
   512  9.9400e-04  1.3169e-03  1.4265e-03  1.0500e-01  7.2920e-04  4.9117e-04  9.6334e-05  0:06:45 1488
   513  9.9122e-04  1.3187e-03  1.4237e-03  1.0439e-01  7.2716e-04  4.8580e-04  9.5507e-05  0:05:24 1487
   514  9.8836e-04  1.3192e-03  1.4207e-03  1.0363e-01  7.2506e-04  4.8040e-04  9.4709e-05  0:04:19 1486
   515  9.8552e-04  1.3198e-03  1.4178e-03  1.0278e-01  7.2304e-04  4.7507e-04  9.3949e-05  0:03:27 1485
   516  9.8272e-04  1.3208e-03  1.4150e-03  1.0190e-01  7.2113e-04  4.6969e-04  9.3154e-05  0:02:46 1484
   517  9.7998e-04  1.3223e-03  1.4126e-03  1.0098e-01  7.1933e-04  4.6422e-04  9.2427e-05  0:02:12 1483

  iter  continuity  x-velocity  y-velocity  z-velocity      energy           k       omega     time/iter
   518  9.7731e-04  1.3243e-03  1.4104e-03  1.0003e-01  7.1765e-04  4.5875e-04  9.1754e-05  0:06:42 1482
   519  9.7471e-04  1.3266e-03  1.4085e-03  9.9066e-02  7.1608e-04  4.5334e-04  9.1096e-05  0:05:22 1481
   520  9.7217e-04  1.3293e-03  1.4069e-03  9.8026e-02  7.1463e-04  4.4795e-04  9.0418e-05  0:04:17 1480
   521  9.6970e-04  1.3323e-03  1.4055e-03  9.7827e-02  7.1329e-04  4.4257e-04  8.9701e-05  0:03:25 1479
   522  9.6730e-04  1.3355e-03  1.4042e-03  9.7536e-02  7.1206e-04  4.3725e-04  8.8915e-05  0:02:44 1478
   523  9.6484e-04  1.3381e-03  1.4024e-03  9.7350e-02  7.1078e-04  4.3235e-04  8.8198e-05  0:02:11 1477
   524  9.6218e-04  1.3400e-03  1.3998e-03  9.7530e-02  7.0929e-04  4.2769e-04  8.7490e-05  0:06:40 1476
   525  9.5943e-04  1.3425e-03  1.3976e-03  9.7799e-02  7.0777e-04  4.2331e-04  8.6790e-05  0:05:20 1475
   526  9.5666e-04  1.3450e-03  1.3957e-03  9.7713e-02  7.0629e-04  4.1910e-04  8.6154e-05  0:04:16 1474
   527  9.5388e-04  1.3474e-03  1.3940e-03  9.7272e-02  7.0485e-04  4.1496e-04  8.5528e-05  0:03:24 1473
   528  9.1797e-04  1.2996e-03  1.2895e-03  9.6563e-02  6.6288e-04  4.1085e-04  8.4878e-05  0:02:43 1472

  iter  continuity  x-velocity  y-velocity  z-velocity      energy           k       omega     time/iter
   529  8.9109e-04  1.3177e-03  1.2534e-03  9.5681e-02  6.3551e-04  4.0706e-04  8.4236e-05  0:02:11 1471
   530  8.7529e-04  1.2869e-03  1.2409e-03  9.4708e-02  6.2204e-04  4.0338e-04  8.3574e-05  0:06:38 1470
   531  8.6397e-04  1.2428e-03  1.2287e-03  9.3732e-02  6.1283e-04  3.9988e-04  8.2911e-05  0:05:19 1469
   532  8.5512e-04  1.2081e-03  1.2157e-03  9.2731e-02  6.0571e-04  3.9681e-04  8.2192e-05  0:04:15 1468
   533  8.4772e-04  1.1841e-03  1.2038e-03  9.1698e-02  5.9987e-04  3.9397e-04  8.1594e-05  0:03:24 1467
   534  8.4105e-04  1.1667e-03  1.1932e-03  9.0654e-02  5.9467e-04  3.9112e-04  8.1045e-05  0:02:43 1466
   535  8.3469e-04  1.1530e-03  1.1835e-03  8.9548e-02  5.8973e-04  3.8832e-04  8.0675e-05  0:02:10 1465
   536  8.2849e-04  1.1414e-03  1.1740e-03  8.8434e-02  5.8494e-04  3.8560e-04  8.0274e-05  0:06:37 1464
   537  8.2243e-04  1.1314e-03  1.1646e-03  8.7357e-02  5.8029e-04  3.8294e-04  7.9841e-05  0:05:17 1463
   538  8.1651e-04  1.1226e-03  1.1552e-03  8.6257e-02  5.7579e-04  3.7987e-04  7.9389e-05  0:04:14 1462
   539  8.1072e-04  1.1148e-03  1.1459e-03  8.5083e-02  5.7143e-04  3.7669e-04  7.8960e-05  0:03:23 1461

  iter  continuity  x-velocity  y-velocity  z-velocity      energy           k       omega     time/iter
   540  8.0504e-04  1.1077e-03  1.1368e-03  8.3791e-02  5.6720e-04  3.7488e-04  7.8508e-05  0:02:42 1460
   541  7.9933e-04  1.1001e-03  1.1266e-03  8.2415e-02  5.6289e-04  3.7236e-04  7.8052e-05  0:02:10 1459
   542  7.9361e-04  1.0926e-03  1.1168e-03  8.1008e-02  5.5860e-04  3.6945e-04  7.7593e-05  0:01:44 1458
   543  7.8794e-04  1.0853e-03  1.1073e-03  7.9637e-02  5.5440e-04  3.6658e-04  7.7119e-05  0:06:14 1457
   544  7.8236e-04  1.0781e-03  1.0980e-03  7.8298e-02  5.5033e-04  3.6389e-04  7.6595e-05  0:04:59 1456
   545  7.7691e-04  1.0714e-03  1.0890e-03  7.6943e-02  5.4642e-04  3.6137e-04  7.6002e-05  0:03:59 1455
   546  7.7155e-04  1.0649e-03  1.0802e-03  7.5600e-02  5.4261e-04  3.5866e-04  7.5372e-05  0:03:11 1454
   547  7.6633e-04  1.0590e-03  1.0714e-03  7.4284e-02  5.3892e-04  3.5603e-04  7.4707e-05  0:02:33 1453
   548  7.6147e-04  1.0561e-03  1.0623e-03  7.2994e-02  5.3558e-04  3.5338e-04  7.4110e-05  0:02:02 1452
   549  7.5681e-04  1.0530e-03  1.0535e-03  7.1723e-02  5.3241e-04  3.5073e-04  7.3595e-05  0:06:28 1451
   550  7.5211e-04  1.0486e-03  1.0452e-03  7.0511e-02  5.2918e-04  3.4814e-04  7.3098e-05  0:05:10 1450

  iter  continuity  x-velocity  y-velocity  z-velocity      energy           k       omega     time/iter
   551  7.4742e-04  1.0434e-03  1.0371e-03  6.9339e-02  5.2596e-04  3.4586e-04  7.2648e-05  0:04:08 1449
   552  7.4279e-04  1.0379e-03  1.0291e-03  6.8219e-02  5.2280e-04  3.4378e-04  7.2124e-05  0:03:18 1448
   553  7.3826e-04  1.0321e-03  1.0213e-03  6.7158e-02  5.1972e-04  3.4172e-04  7.1530e-05  0:02:38 1447
   554  7.3383e-04  1.0263e-03  1.0137e-03  6.6134e-02  5.1672e-04  3.3970e-04  7.1045e-05  0:02:07 1446
   555  7.2960e-04  1.0205e-03  1.0061e-03  6.5142e-02  5.1388e-04  3.3772e-04  7.0534e-05  0:06:30 1445
   556  7.2549e-04  1.0147e-03  9.9859e-04  6.4176e-02  5.1113e-04  3.3571e-04  7.0023e-05  0:05:12 1444
   557  7.2149e-04  1.0088e-03  9.9111e-04  6.3233e-02  5.0847e-04  3.3362e-04  6.9544e-05  0:04:09 1443
   558  7.1760e-04  1.0029e-03  9.8376e-04  6.2325e-02  5.0589e-04  3.3151e-04  6.9121e-05  0:03:19 1442
   559  7.1382e-04  9.9714e-04  9.7654e-04  6.1448e-02  5.0339e-04  3.2933e-04  6.8661e-05  0:02:39 1441
   560  7.1014e-04  9.9157e-04  9.6944e-04  6.0621e-02  5.0096e-04  3.2712e-04  6.8142e-05  0:02:07 1440
   561  7.0658e-04  9.8629e-04  9.6243e-04  5.9835e-02  4.9863e-04  3.2499e-04  6.7625e-05  0:06:30 1439

  iter  continuity  x-velocity  y-velocity  z-velocity      energy           k       omega     time/iter
   562  7.0312e-04  9.8125e-04  9.5551e-04  5.8998e-02  4.9638e-04  3.2299e-04  6.7096e-05  0:05:12 1438
   563  6.9975e-04  9.7641e-04  9.4865e-04  5.8332e-02  4.9420e-04  3.2110e-04  6.6571e-05  0:04:09 1437
   564  6.9646e-04  9.7175e-04  9.4187e-04  5.7727e-02  4.9209e-04  3.1925e-04  6.6075e-05  0:03:19 1436
   565  6.9325e-04  9.6725e-04  9.3519e-04  5.7156e-02  4.9003e-04  3.1745e-04  6.5589e-05  0:02:39 1435
   566  6.9010e-04  9.6274e-04  9.2869e-04  5.6693e-02  4.8802e-04  3.1563e-04  6.5131e-05  0:02:07 1434
   567  6.8697e-04  9.5834e-04  9.2213e-04  5.6347e-02  4.8601e-04  3.1382e-04  6.4685e-05  0:01:42 1433
   568  6.8391e-04  9.5432e-04  9.1573e-04  5.6121e-02  4.8404e-04  3.1200e-04  6.4254e-05  0:06:08 1432
   569  6.8089e-04  9.5050e-04  9.0946e-04  5.5998e-02  4.8210e-04  3.1017e-04  6.3844e-05  0:04:54 1431
   570  6.7789e-04  9.4680e-04  9.0330e-04  5.5924e-02  4.8017e-04  3.0831e-04  6.3559e-05  0:03:55 1430
   571  6.7490e-04  9.4315e-04  8.9723e-04  5.5875e-02  4.7823e-04  3.0646e-04  6.3341e-05  0:03:08 1429
   572  6.7199e-04  9.3982e-04  8.9139e-04  5.5804e-02  4.7635e-04  3.0473e-04  6.3130e-05  0:02:30 1428

  iter  continuity  x-velocity  y-velocity  z-velocity      energy           k       omega     time/iter
   573  6.6906e-04  9.3643e-04  8.8564e-04  5.5721e-02  4.7444e-04  3.0301e-04  6.2939e-05  0:02:00 1427
   574  6.6607e-04  9.3290e-04  8.7990e-04  5.5591e-02  4.7247e-04  3.0135e-04  6.2750e-05  0:06:21 1426
   575  6.6305e-04  9.2948e-04  8.7411e-04  5.5388e-02  4.7046e-04  2.9970e-04  6.2552e-05  0:05:05 1425
   576  6.6002e-04  9.2593e-04  8.6839e-04  5.5141e-02  4.6844e-04  2.9816e-04  6.2350e-05  0:04:04 1424
   577  6.5701e-04  9.2241e-04  8.6276e-04  5.4879e-02  4.6642e-04  2.9651e-04  6.2143e-05  0:03:15 1423
   578  6.5400e-04  9.1900e-04  8.5721e-04  5.4604e-02  4.6440e-04  2.9459e-04  6.1939e-05  0:02:36 1422
   579  6.5099e-04  9.1573e-04  8.5175e-04  5.4322e-02  4.6237e-04  2.9305e-04  6.1740e-05  0:02:04 1421
   580  6.4798e-04  9.1256e-04  8.4635e-04  5.4034e-02  4.6033e-04  2.9170e-04  6.1579e-05  0:06:24 1420
   581  6.4497e-04  9.0950e-04  8.4103e-04  5.3766e-02  4.5828e-04  2.9031e-04  6.1502e-05  0:05:07 1419
   582  6.4194e-04  9.0651e-04  8.3577e-04  5.3522e-02  4.5622e-04  2.8881e-04  6.1597e-05  0:04:05 1418
   583  6.3890e-04  9.0357e-04  8.3057e-04  5.3287e-02  4.5413e-04  2.8729e-04  6.1415e-05  0:03:16 1417

  iter  continuity  x-velocity  y-velocity  z-velocity      energy           k       omega     time/iter
   584  6.3584e-04  9.0066e-04  8.2544e-04  5.3034e-02  4.5203e-04  2.8576e-04  6.1648e-05  0:02:37 1416
   585  6.3277e-04  8.9776e-04  8.2036e-04  5.2745e-02  4.4990e-04  2.8435e-04  6.1498e-05  0:02:05 1415
   586  6.2967e-04  8.9488e-04  8.1534e-04  5.2420e-02  4.4775e-04  2.8333e-04  6.1346e-05  0:01:40 1414
   587  6.2655e-04  8.9207e-04  8.1039e-04  5.2038e-02  4.4557e-04  2.8251e-04  6.1247e-05  0:06:03 1413
   588  6.2342e-04  8.8926e-04  8.0553e-04  5.1623e-02  4.4337e-04  2.8181e-04  6.1250e-05  0:04:50 1412
   589  6.2029e-04  8.8645e-04  8.0071e-04  5.1184e-02  4.4117e-04  2.8121e-04  6.1248e-05  0:03:52 1411
   590  6.1715e-04  9.0518e-04  7.9738e-04  5.0719e-02  4.3895e-04  2.8068e-04  6.1245e-05  0:03:05 1410
   591  6.1472e-04  8.8562e-04  7.9219e-04  5.0232e-02  4.3744e-04  2.8025e-04  6.1267e-05  0:02:28 1409
   592  6.1189e-04  8.7999e-04  7.8768e-04  4.9717e-02  4.3548e-04  2.7992e-04  6.1293e-05  0:01:58 1408
   593  6.0876e-04  8.7643e-04  7.8271e-04  4.9179e-02  4.3321e-04  2.7971e-04  6.1335e-05  0:06:16 1407
   594  6.0548e-04  8.7291e-04  7.7758e-04  4.8620e-02  4.3079e-04  2.7966e-04  6.1443e-05  0:05:01 1406

  iter  continuity  x-velocity  y-velocity  z-velocity      energy           k       omega     time/iter
   595  6.0219e-04  8.6937e-04  7.7250e-04  4.8034e-02  4.2837e-04  2.7969e-04  6.1537e-05  0:04:00 1405
   596  5.9894e-04  8.6602e-04  7.6758e-04  4.7425e-02  4.2599e-04  2.7978e-04  6.1692e-05  0:03:12 1404
   597  5.9577e-04  8.6296e-04  7.6284e-04  4.6790e-02  4.2370e-04  2.7982e-04  6.1888e-05  0:02:34 1403
   598  5.9269e-04  8.6017e-04  7.5828e-04  4.6136e-02  4.2149e-04  2.7982e-04  6.2107e-05  0:06:43 1402
   599  5.8965e-04  8.5759e-04  7.5386e-04  4.5460e-02  4.1933e-04  2.7980e-04  6.2306e-05  0:05:22 1401
   600  5.8664e-04  8.5521e-04  7.4951e-04  4.4774e-02  4.1719e-04  2.7978e-04  6.2530e-05  0:04:18 1400
   601  5.8369e-04  8.5322e-04  7.4523e-04  4.4083e-02  4.1511e-04  2.7947e-04  6.2678e-05  0:03:26 1399
   602  5.8081e-04  8.5127e-04  7.4098e-04  4.3395e-02  4.1309e-04  2.7925e-04  6.2969e-05  0:02:45 1398
   603  5.7798e-04  8.4925e-04  7.3674e-04  4.2703e-02  4.1111e-04  2.7895e-04  6.3387e-05  0:02:12 1397
   604  5.7520e-04  8.4717e-04  7.3250e-04  4.2016e-02  4.0917e-04  2.7858e-04  6.3730e-05  0:01:45 1396
   605  5.7247e-04  8.4506e-04  7.2828e-04  4.1342e-02  4.0727e-04  2.7881e-04  6.3998e-05  0:06:03 1395

  iter  continuity  x-velocity  y-velocity  z-velocity      energy           k       omega     time/iter
   606  5.6980e-04  8.4299e-04  7.2408e-04  4.0688e-02  4.0540e-04  2.7960e-04  6.4265e-05  0:04:50 1394
   607  5.6717e-04  8.4097e-04  7.1991e-04  4.0055e-02  4.0358e-04  2.8001e-04  6.4493e-05  0:03:52 1393
   608  5.6461e-04  8.3905e-04  7.1578e-04  3.9459e-02  4.0180e-04  2.8025e-04  6.4684e-05  0:03:06 1392
   609  5.6209e-04  8.3720e-04  7.1171e-04  3.8902e-02  4.0006e-04  2.8068e-04  6.4846e-05  0:02:28 1391
   610  5.5963e-04  8.3544e-04  7.0768e-04  3.8384e-02  3.9836e-04  2.8122e-04  6.5004e-05  0:01:59 1390
   611  5.5723e-04  8.3379e-04  7.0370e-04  3.7923e-02  3.9672e-04  2.8216e-04  6.5194e-05  0:06:13 1389
   612  5.5489e-04  8.3222e-04  6.9979e-04  3.7507e-02  3.9512e-04  2.8325e-04  6.5418e-05  0:04:58 1388
   613  5.5260e-04  8.3076e-04  6.9593e-04  3.7140e-02  3.9356e-04  2.8437e-04  6.5515e-05  0:03:58 1387
   614  5.5038e-04  8.2938e-04  6.9222e-04  3.6822e-02  3.9206e-04  2.8536e-04  6.5560e-05  0:03:10 1386
   615  5.4821e-04  8.4241e-04  6.8807e-04  3.6551e-02  3.9059e-04  2.8615e-04  6.5754e-05  0:02:32 1385
   616  5.4603e-04  8.4630e-04  6.8416e-04  3.6333e-02  3.8914e-04  2.8704e-04  6.5952e-05  0:02:02 1384

  iter  continuity  x-velocity  y-velocity  z-velocity      energy           k       omega     time/iter
   617  5.4444e-04  8.3167e-04  6.8146e-04  3.6073e-02  3.8822e-04  2.8793e-04  6.6004e-05  0:06:14 1383
   618  5.4267e-04  8.2813e-04  6.7829e-04  3.5676e-02  3.8711e-04  2.8883e-04  6.6121e-05  0:04:59 1382
   619  5.4076e-04  8.2659e-04  6.7474e-04  3.5258e-02  3.8583e-04  2.8988e-04  6.6240e-05  0:03:59 1381
   620  5.3878e-04  8.2531e-04  6.7108e-04  3.4884e-02  3.8450e-04  2.9090e-04  6.6352e-05  0:03:11 1380
   621  5.3682e-04  8.2412e-04  6.6747e-04  3.4598e-02  3.8317e-04  2.9189e-04  6.6500e-05  0:02:33 1379
   622  5.3485e-04  8.1997e-04  6.6388e-04  3.4390e-02  3.8183e-04  2.9289e-04  6.6620e-05  0:06:38 1378
   623  5.3299e-04  7.9883e-04  6.6120e-04  3.4245e-02  3.8059e-04  2.9386e-04  6.6733e-05  0:05:18 1377
   624  5.3198e-04  7.9802e-04  6.5971e-04  3.4146e-02  3.8044e-04  2.9474e-04  6.6778e-05  0:04:14 1376
[...]
  1838  3.8392e-06  1.1094e-05  3.2435e-06  2.6897e+01  3.7810e-06  7.0193e-06  1.6056e-06  0:00:02  162
  1839  3.8348e-06  1.1079e-05  3.2347e-06  2.6848e+01  3.7775e-06  7.0084e-06  1.6029e-06  0:00:02  161
  1840  3.8303e-06  1.1067e-05  3.2269e-06  2.6799e+01  3.7735e-06  6.9979e-06  1.6005e-06  0:00:33  160
  1841  3.8260e-06  1.1056e-05  3.2202e-06  2.6750e+01  3.7697e-06  6.9931e-06  1.5982e-06  0:00:27  159
  1842  3.8225e-06  1.1048e-05  3.2146e-06  2.6701e+01  3.7663e-06  6.9867e-06  1.5965e-06  0:00:21  158
  1843  3.8198e-06  1.1042e-05  3.2100e-06  2.6652e+01  3.7635e-06  6.9826e-06  1.5950e-06  0:00:17  157
  1844  3.8182e-06  1.1038e-05  3.2064e-06  2.6603e+01  3.7615e-06  6.9780e-06  1.5940e-06  0:00:13  156
  1845  3.8176e-06  1.1036e-05  3.2039e-06  2.6555e+01  3.7602e-06  6.9731e-06  1.5930e-06  0:00:11  155
  1846  3.8185e-06  1.1037e-05  3.2039e-06  2.6506e+01  3.7603e-06  6.9669e-06  1.5922e-06  0:00:08  154
  1847  3.8206e-06  1.1039e-05  3.2039e-06  2.6458e+01  3.7612e-06  6.9613e-06  1.5913e-06  0:00:07  153
  1848  3.8234e-06  1.1044e-05  3.2042e-06  2.6411e+01  3.7626e-06  6.9565e-06  1.5906e-06  0:00:05  152

  iter  continuity  x-velocity  y-velocity  z-velocity      energy           k       omega     time/iter
  1849  3.8269e-06  1.1051e-05  3.2050e-06  2.6364e+01  3.7644e-06  6.9518e-06  1.5901e-06  0:00:04  151
  1850  3.8311e-06  1.1061e-05  3.2063e-06  2.6318e+01  3.7667e-06  6.9474e-06  1.5906e-06  0:00:03  150
  1851  3.8359e-06  1.1072e-05  3.2084e-06  2.6273e+01  3.7694e-06  6.9437e-06  1.5912e-06  0:00:03  149
  1852  3.8414e-06  1.1086e-05  3.2113e-06  2.6228e+01  3.7723e-06  6.9403e-06  1.5917e-06  0:00:02  148
  1853  3.8474e-06  1.1102e-05  3.2151e-06  2.6185e+01  3.7757e-06  6.9367e-06  1.5921e-06  0:00:31  147
  1854  3.8540e-06  1.1121e-05  3.2197e-06  2.6142e+01  3.7794e-06  6.9327e-06  1.5928e-06  0:00:25  146
  1855  3.8613e-06  1.1141e-05  3.2251e-06  2.6100e+01  3.7835e-06  6.9284e-06  1.5943e-06  0:00:20  145
  1856  3.8693e-06  1.1164e-05  3.2313e-06  2.6060e+01  3.7880e-06  6.9250e-06  1.5961e-06  0:00:16  144
  1857  3.8778e-06  1.1189e-05  3.2382e-06  2.6021e+01  3.7928e-06  6.9210e-06  1.5956e-06  0:00:12  143
  1858  3.8871e-06  1.1217e-05  3.2460e-06  2.5983e+01  3.7982e-06  6.9159e-06  1.5933e-06  0:00:10  142
  1859  3.8974e-06  1.1247e-05  3.2545e-06  2.5947e+01  3.8043e-06  6.9099e-06  1.5924e-06  0:00:08  141

  iter  continuity  x-velocity  y-velocity  z-velocity      energy           k       omega     time/iter
  1860  3.9086e-06  1.1279e-05  3.2637e-06  2.5912e+01  3.8110e-06  6.9028e-06  1.5918e-06  0:00:06  140
  1861  3.9206e-06  1.1314e-05  3.2738e-06  2.5879e+01  3.8183e-06  6.8958e-06  1.5916e-06  0:00:05  139
  1862  3.9334e-06  1.1351e-05  3.2849e-06  2.5848e+01  3.8263e-06  6.8894e-06  1.5947e-06  0:00:04  138
  1863  3.9471e-06  1.1390e-05  3.2968e-06  2.5818e+01  3.8347e-06  6.8838e-06  1.5994e-06  0:00:03  137
  1864  3.9616e-06  1.1431e-05  3.3098e-06  2.5789e+01  3.8439e-06  6.8799e-06  1.6030e-06  0:00:02  136
  1865  3.9773e-06  1.1475e-05  3.3241e-06  2.5763e+01  3.8539e-06  6.8785e-06  1.6060e-06  0:00:02  135
  1866  3.9942e-06  1.1522e-05  3.3393e-06  2.5738e+01  3.8651e-06  6.8779e-06  1.6087e-06  0:00:28  134
  1867  4.0116e-06  1.1571e-05  3.3559e-06  2.5714e+01  3.8765e-06  6.8800e-06  1.6113e-06  0:00:23  133
  1868  4.0295e-06  1.1623e-05  3.3736e-06  2.5692e+01  3.8881e-06  6.8858e-06  1.6137e-06  0:00:18  132
  1869  4.0477e-06  1.1678e-05  3.3922e-06  2.5671e+01  3.8999e-06  6.8933e-06  1.6158e-06  0:00:14  131
  1870  4.0664e-06  1.1736e-05  3.4120e-06  2.5652e+01  3.9119e-06  6.9034e-06  1.6169e-06  0:00:11  130

  iter  continuity  x-velocity  y-velocity  z-velocity      energy           k       omega     time/iter
  1871  4.0853e-06  1.1796e-05  3.4327e-06  2.5634e+01  3.9240e-06  6.9148e-06  1.6188e-06  0:00:09  129
  1872  4.1041e-06  1.1859e-05  3.4545e-06  2.5617e+01  3.9357e-06  6.9270e-06  1.6203e-06  0:00:07  128
  1873  4.1227e-06  1.1925e-05  3.4774e-06  2.5602e+01  3.9470e-06  6.9406e-06  1.6216e-06  0:00:06  127
  1874  4.1426e-06  1.1993e-05  3.5011e-06  2.5587e+01  3.9596e-06  6.9564e-06  1.6219e-06  0:00:04  126
  1875  4.1631e-06  1.2063e-05  3.5259e-06  2.5574e+01  3.9725e-06  6.9733e-06  1.6225e-06  0:00:04  125
  1876  4.1827e-06  1.2137e-05  3.5516e-06  2.5562e+01  3.9843e-06  6.9919e-06  1.6227e-06  0:00:03  124
  1877  4.2027e-06  1.2213e-05  3.5782e-06  2.5552e+01  3.9965e-06  7.0115e-06  1.6230e-06  0:00:02  123
  1878  4.2235e-06  1.2290e-05  3.6056e-06  2.5542e+01  4.0092e-06  7.0304e-06  1.6262e-06  0:00:02  122
  1879  4.2446e-06  1.2370e-05  3.6339e-06  2.5533e+01  4.0223e-06  7.0490e-06  1.6292e-06  0:00:01  121
  1880  4.2657e-06  1.2451e-05  3.6630e-06  2.5525e+01  4.0352e-06  7.0671e-06  1.6315e-06  0:00:25  120
  1881  4.2868e-06  1.2534e-05  3.6928e-06  2.5518e+01  4.0480e-06  7.0845e-06  1.6330e-06  0:00:20  119

  iter  continuity  x-velocity  y-velocity  z-velocity      energy           k       omega     time/iter
  1882  4.3098e-06  1.2619e-05  3.7233e-06  2.5511e+01  4.0626e-06  7.1026e-06  1.6342e-06  0:00:16  118
  1883  4.3372e-06  1.2707e-05  3.7546e-06  2.5505e+01  4.0818e-06  7.1224e-06  1.6350e-06  0:00:13  117
  1884  4.3626e-06  1.2797e-05  3.7865e-06  2.5498e+01  4.0989e-06  7.1424e-06  1.6361e-06  0:00:10  116
  1885  4.3861e-06  1.2889e-05  3.8187e-06  2.5493e+01  4.1138e-06  7.1635e-06  1.6372e-06  0:00:08  115
  1886  4.4085e-06  1.2982e-05  3.8507e-06  2.5487e+01  4.1276e-06  7.1846e-06  1.6385e-06  0:00:06  114
  1887  4.4304e-06  1.3076e-05  3.8828e-06  2.5482e+01  4.1409e-06  7.2050e-06  1.6404e-06  0:00:05  113
  1888  4.4523e-06  1.3171e-05  3.9150e-06  2.5478e+01  4.1542e-06  7.2249e-06  1.6426e-06  0:00:04  112
  1889  4.4743e-06  1.3267e-05  3.9458e-06  2.5473e+01  4.1676e-06  7.2454e-06  1.6452e-06  0:00:03  111
  1890  4.4965e-06  1.3364e-05  3.9777e-06  2.5469e+01  4.1812e-06  7.2654e-06  1.6480e-06  0:00:02  110
  1891  4.5188e-06  1.3461e-05  4.0106e-06  2.5464e+01  4.1950e-06  7.2849e-06  1.6506e-06  0:00:02  109
  1892  4.5414e-06  1.3559e-05  4.0436e-06  2.5460e+01  4.2090e-06  7.3036e-06  1.6571e-06  0:00:02  108

  iter  continuity  x-velocity  y-velocity  z-velocity      energy           k       omega     time/iter
  1893  4.5655e-06  1.3657e-05  4.0776e-06  2.5455e+01  4.2249e-06  7.3215e-06  1.6635e-06  0:00:01  107
  1894  4.5914e-06  1.3758e-05  4.1114e-06  2.5450e+01  4.2427e-06  7.3381e-06  1.6738e-06  0:00:22  106
  1895  4.6172e-06  1.3858e-05  4.1447e-06  2.5444e+01  4.2604e-06  7.3540e-06  1.6874e-06  0:00:18  105
  1896  4.6428e-06  1.3958e-05  4.1779e-06  2.5437e+01  4.2780e-06  7.3694e-06  1.7013e-06  0:00:14  104
  1897  4.6681e-06  1.4058e-05  4.2106e-06  2.5430e+01  4.2954e-06  7.3844e-06  1.7141e-06  0:00:11  103
  1898  4.6929e-06  1.4157e-05  4.2427e-06  2.5423e+01  4.3124e-06  7.3991e-06  1.7239e-06  0:00:09  102
  1899  4.7174e-06  1.4256e-05  4.2742e-06  2.5414e+01  4.3293e-06  7.4145e-06  1.7310e-06  0:00:07  101
  1900  4.7425e-06  1.4355e-05  4.3058e-06  2.5405e+01  4.3469e-06  7.4306e-06  1.7367e-06  0:00:05  100
  1901  4.7663e-06  1.4452e-05  4.3365e-06  2.5395e+01  4.3633e-06  7.4470e-06  1.7401e-06  0:00:04   99
  1902  4.7891e-06  1.4550e-05  4.3669e-06  2.5385e+01  4.3788e-06  7.4647e-06  1.7434e-06  0:00:03   98
  1903  4.8128e-06  1.4646e-05  4.3966e-06  2.5373e+01  4.3953e-06  7.4840e-06  1.7548e-06  0:00:03   97

  iter  continuity  x-velocity  y-velocity  z-velocity      energy           k       omega     time/iter
  1904  4.8366e-06  1.4742e-05  4.4259e-06  2.5361e+01  4.4122e-06  7.5048e-06  1.7651e-06  0:00:02   96
  1905  4.8604e-06  1.4837e-05  4.4547e-06  2.5349e+01  4.4293e-06  7.5264e-06  1.7648e-06  0:00:02   95
  1906  4.8841e-06  1.4931e-05  4.4831e-06  2.5337e+01  4.4466e-06  7.5467e-06  1.7708e-06  0:00:01   94
  1907  4.9077e-06  1.5025e-05  4.5111e-06  2.5324e+01  4.4638e-06  7.5714e-06  1.7810e-06  0:00:01   93
  1908  4.9317e-06  1.5118e-05  4.5389e-06  2.5310e+01  4.4817e-06  7.6140e-06  1.7916e-06  0:00:19   92
  1909  4.9566e-06  1.5211e-05  4.5665e-06  2.5297e+01  4.5010e-06  7.6403e-06  1.8006e-06  0:00:15   91
  1910  4.9792e-06  1.5302e-05  4.5937e-06  2.5283e+01  4.5178e-06  7.6571e-06  1.8069e-06  0:00:12   90
  1911  5.0005e-06  1.5392e-05  4.6204e-06  2.5269e+01  4.5335e-06  7.6684e-06  1.8139e-06  0:00:10   89
  1912  5.0208e-06  1.5480e-05  4.6465e-06  2.5255e+01  4.5483e-06  7.6766e-06  1.8209e-06  0:00:08   88
  1913  5.0405e-06  1.5566e-05  4.6721e-06  2.5241e+01  4.5627e-06  7.6804e-06  1.8273e-06  0:00:06   87
  1914  5.0599e-06  1.5651e-05  4.6971e-06  2.5228e+01  4.5770e-06  7.6806e-06  1.8341e-06  0:00:05   86

  iter  continuity  x-velocity  y-velocity  z-velocity      energy           k       omega     time/iter
  1915  5.0791e-06  1.5735e-05  4.7218e-06  2.5214e+01  4.5912e-06  7.6802e-06  1.8400e-06  0:00:04   85
  1916  5.0980e-06  1.5817e-05  4.7456e-06  2.5199e+01  4.6053e-06  7.6812e-06  1.8447e-06  0:00:03   84
  1917  5.1165e-06  1.5898e-05  4.7687e-06  2.5185e+01  4.6194e-06  7.6835e-06  1.8494e-06  0:00:02   83
  1918  5.1348e-06  1.5978e-05  4.7911e-06  2.5171e+01  4.6333e-06  7.6855e-06  1.8536e-06  0:00:02   82
  1919  5.1526e-06  1.6056e-05  4.8128e-06  2.5157e+01  4.6469e-06  7.6858e-06  1.8565e-06  0:00:01   81
  1920  5.1700e-06  1.6133e-05  4.8339e-06  2.5143e+01  4.6604e-06  7.6858e-06  1.8581e-06  0:00:01   80
  1921  5.1872e-06  1.6208e-05  4.8542e-06  2.5129e+01  4.6739e-06  7.6854e-06  1.8597e-06  0:00:01   79
  1922  5.2042e-06  1.6281e-05  4.8737e-06  2.5115e+01  4.6873e-06  7.6854e-06  1.8613e-06  0:00:16   78
  1923  5.2211e-06  1.6353e-05  4.8921e-06  2.5101e+01  4.7008e-06  7.6855e-06  1.8629e-06  0:00:13   77
  1924  5.2378e-06  1.6423e-05  4.9085e-06  2.5088e+01  4.7144e-06  7.6859e-06  1.8646e-06  0:00:10   76
  1925  5.2546e-06  1.6492e-05  4.9253e-06  2.5075e+01  4.7282e-06  7.6857e-06  1.8659e-06  0:00:08   75

  iter  continuity  x-velocity  y-velocity  z-velocity      energy           k       omega     time/iter
  1926  5.2715e-06  1.6559e-05  4.9416e-06  2.5062e+01  4.7424e-06  7.6844e-06  1.8670e-06  0:00:06   74
  1927  5.2885e-06  1.6623e-05  4.9570e-06  2.5050e+01  4.7569e-06  7.6819e-06  1.8669e-06  0:00:05   73
  1928  5.3059e-06  1.6687e-05  4.9713e-06  2.5039e+01  4.7720e-06  7.6782e-06  1.8681e-06  0:00:04   72
  1929  5.3231e-06  1.6748e-05  4.9850e-06  2.5028e+01  4.7871e-06  7.6728e-06  1.8695e-06  0:00:03   71
  1930  5.3401e-06  1.6808e-05  4.9984e-06  2.5018e+01  4.8022e-06  7.6670e-06  1.8714e-06  0:00:02   70
  1931  5.3569e-06  1.6865e-05  5.0111e-06  2.5009e+01  4.8172e-06  7.6621e-06  1.8736e-06  0:00:02   69
  1932  5.3735e-06  1.6920e-05  5.0230e-06  2.5001e+01  4.8323e-06  7.6567e-06  1.8757e-06  0:00:02   68
  1933  5.3899e-06  1.6974e-05  5.0340e-06  2.4994e+01  4.8472e-06  7.6491e-06  1.8778e-06  0:00:01   67
  1934  5.4059e-06  1.7026e-05  5.0443e-06  2.4988e+01  4.8620e-06  7.6393e-06  1.8799e-06  0:00:01   66
  1935  5.4218e-06  1.7076e-05  5.0539e-06  2.4983e+01  4.8768e-06  7.6282e-06  1.8819e-06  0:00:01   65
  1936  5.4382e-06  1.7125e-05  5.0632e-06  2.4979e+01  4.8922e-06  7.6154e-06  1.8851e-06  0:00:13   64

  iter  continuity  x-velocity  y-velocity  z-velocity      energy           k       omega     time/iter
  1937  5.4536e-06  1.7173e-05  5.0719e-06  2.4976e+01  4.9068e-06  7.6004e-06  1.8890e-06  0:00:11   63
  1938  5.4682e-06  1.7219e-05  5.0798e-06  2.4974e+01  4.9207e-06  7.5847e-06  1.8927e-06  0:00:08   62
  1939  5.4823e-06  1.7263e-05  5.0869e-06  2.4974e+01  4.9342e-06  7.5673e-06  1.8955e-06  0:00:07   61
  1940  5.4961e-06  1.7306e-05  5.0936e-06  2.4974e+01  4.9474e-06  7.5501e-06  1.8960e-06  0:00:05   60
  1941  5.5094e-06  1.7347e-05  5.0999e-06  2.4975e+01  4.9603e-06  7.5300e-06  1.8970e-06  0:00:04   59
  1942  5.5223e-06  1.7386e-05  5.1058e-06  2.4978e+01  4.9730e-06  7.5094e-06  1.8985e-06  0:00:03   58
  1943  5.5348e-06  1.7424e-05  5.1113e-06  2.4981e+01  4.9853e-06  7.4900e-06  1.9010e-06  0:00:03   57
  1944  5.5469e-06  1.7459e-05  5.1165e-06  2.4986e+01  4.9973e-06  7.4707e-06  1.9039e-06  0:00:02   56
  1945  5.5595e-06  1.7494e-05  5.1219e-06  2.4991e+01  5.0101e-06  7.4534e-06  1.9075e-06  0:00:02   55
  1946  5.5756e-06  1.7530e-05  5.1268e-06  2.4998e+01  5.0268e-06  7.4364e-06  1.9116e-06  0:00:01   54
  1947  5.5908e-06  1.7563e-05  5.1314e-06  2.5005e+01  5.0427e-06  7.4206e-06  1.9159e-06  0:00:01   53

  iter  continuity  x-velocity  y-velocity  z-velocity      energy           k       omega     time/iter
  1948  5.6045e-06  1.7595e-05  5.1358e-06  2.5014e+01  5.0571e-06  7.4049e-06  1.9205e-06  0:00:01   52
  1949  5.6173e-06  1.7626e-05  5.1401e-06  2.5023e+01  5.0705e-06  7.3914e-06  1.9252e-06  0:00:01   51
  1950  5.6295e-06  1.7655e-05  5.1440e-06  2.5033e+01  5.0834e-06  7.3794e-06  1.9307e-06  0:00:10   50
  1951  5.6412e-06  1.7682e-05  5.1476e-06  2.5047e+01  5.0959e-06  7.3682e-06  1.9355e-06  0:00:08   49
  1952  5.6527e-06  1.7709e-05  5.1536e-06  2.5063e+01  5.1083e-06  7.3585e-06  1.9419e-06  0:00:06   48
  1953  5.6645e-06  1.7735e-05  5.1595e-06  2.5080e+01  5.1212e-06  7.3502e-06  1.9486e-06  0:00:05   47
  1954  5.6762e-06  1.7761e-05  5.1643e-06  2.5098e+01  5.1340e-06  7.3445e-06  1.9567e-06  0:00:04   46
  1955  5.6875e-06  1.7785e-05  5.1682e-06  2.5118e+01  5.1465e-06  7.3395e-06  1.9646e-06  0:00:03   45
  1956  5.6983e-06  1.7808e-05  5.1711e-06  2.5138e+01  5.1585e-06  7.3342e-06  1.9729e-06  0:00:02   44
  1957  5.7083e-06  1.7830e-05  5.1733e-06  2.5161e+01  5.1699e-06  7.3316e-06  1.9812e-06  0:00:02   43
  1958  5.7178e-06  1.7850e-05  5.1748e-06  2.5184e+01  5.1806e-06  7.3320e-06  1.9903e-06  0:00:01   42

  iter  continuity  x-velocity  y-velocity  z-velocity      energy           k       omega     time/iter
  1959  5.7267e-06  1.7870e-05  5.1758e-06  2.5209e+01  5.1908e-06  7.3339e-06  2.0002e-06  0:00:01   41
  1960  5.7351e-06  1.7889e-05  5.1762e-06  2.5234e+01  5.2006e-06  7.3364e-06  2.0097e-06  0:00:01   40
  1961  5.7432e-06  1.7907e-05  5.1765e-06  2.5261e+01  5.2100e-06  7.3410e-06  2.0192e-06  0:00:01   39
  1962  5.7509e-06  1.7924e-05  5.1762e-06  2.5290e+01  5.2190e-06  7.3477e-06  2.0292e-06  0:00:01   38
  1963  5.7580e-06  1.7940e-05  5.1763e-06  2.5319e+01  5.2275e-06  7.3556e-06  2.0396e-06  0:00:00   37
  1964  5.7634e-06  1.7960e-05  5.1751e-06  2.5350e+01  5.2341e-06  7.3653e-06  2.0509e-06  0:00:08   36
  1965  5.7697e-06  1.7976e-05  5.1733e-06  2.5382e+01  5.2418e-06  7.3760e-06  2.0621e-06  0:00:06   35
  1966  5.7743e-06  1.7991e-05  5.1730e-06  2.5415e+01  5.2477e-06  7.3893e-06  2.0736e-06  0:00:05   34
  1967  5.7794e-06  1.8005e-05  5.1724e-06  2.5448e+01  5.2541e-06  7.4077e-06  2.0734e-06  0:00:04   33
  1968  5.7890e-06  1.8024e-05  5.1747e-06  2.5483e+01  5.2656e-06  7.4330e-06  2.0569e-06  0:00:03   32
  1969  5.7986e-06  1.8041e-05  5.1744e-06  2.5519e+01  5.2771e-06  7.4575e-06  2.0649e-06  0:00:02   31

  iter  continuity  x-velocity  y-velocity  z-velocity      energy           k       omega     time/iter
  1970  5.8070e-06  1.8058e-05  5.1736e-06  2.5556e+01  5.2873e-06  7.4791e-06  2.0684e-06  0:00:02   30
  1971  5.8144e-06  1.8073e-05  5.1735e-06  2.5594e+01  5.2963e-06  7.4980e-06  2.0769e-06  0:00:01   29
  1972  5.8211e-06  1.8087e-05  5.1742e-06  2.5632e+01  5.3047e-06  7.5157e-06  2.0862e-06  0:00:01   28
  1973  5.8272e-06  1.8100e-05  5.1752e-06  2.5672e+01  5.3123e-06  7.5360e-06  2.0825e-06  0:00:01   27
  1974  5.8328e-06  1.8113e-05  5.1766e-06  2.5715e+01  5.3196e-06  7.5569e-06  2.0902e-06  0:00:01   26
  1975  5.8383e-06  1.8125e-05  5.1782e-06  2.5761e+01  5.3267e-06  7.5781e-06  2.0959e-06  0:00:05   25
  1976  5.8439e-06  1.8137e-05  5.1797e-06  2.5806e+01  5.3338e-06  7.6002e-06  2.0995e-06  0:00:04   24
  1977  5.8496e-06  1.8148e-05  5.1812e-06  2.5852e+01  5.3411e-06  7.6211e-06  2.1071e-06  0:00:03   23
  1978  5.8556e-06  1.8159e-05  5.1826e-06  2.5899e+01  5.3488e-06  7.6460e-06  2.1170e-06  0:00:02   22
  1979  5.8620e-06  1.8169e-05  5.1839e-06  2.5947e+01  5.3569e-06  7.6733e-06  2.1263e-06  0:00:02   21
  1980  5.8686e-06  1.8179e-05  5.1852e-06  2.5996e+01  5.3652e-06  7.6997e-06  2.1339e-06  0:00:01   20

  iter  continuity  x-velocity  y-velocity  z-velocity      energy           k       omega     time/iter
  1981  5.8755e-06  1.8189e-05  5.1865e-06  2.6045e+01  5.3738e-06  7.7246e-06  2.1407e-06  0:00:01   19
  1982  5.8825e-06  1.8198e-05  5.1878e-06  2.6095e+01  5.3826e-06  7.7510e-06  2.1461e-06  0:00:01   18
  1983  5.8897e-06  1.8206e-05  5.1891e-06  2.6147e+01  5.3916e-06  7.7754e-06  2.1516e-06  0:00:01   17
  1984  5.8970e-06  1.8214e-05  5.1903e-06  2.6199e+01  5.4006e-06  7.7965e-06  2.1570e-06  0:00:00   16
  1985  5.9043e-06  1.8221e-05  5.1916e-06  2.6252e+01  5.4096e-06  7.8159e-06  2.1607e-06  0:00:00   15
  1986  5.9116e-06  1.8227e-05  5.1929e-06  2.6306e+01  5.4187e-06  7.8280e-06  2.1718e-06  0:00:00   14
  1987  5.9189e-06  1.8233e-05  5.1943e-06  2.6361e+01  5.4278e-06  7.8442e-06  2.1811e-06  0:00:00   13
  1988  5.9261e-06  1.8239e-05  5.1959e-06  2.6417e+01  5.4367e-06  7.8630e-06  2.1887e-06  0:00:00   12
  1989  5.9328e-06  1.8244e-05  5.1974e-06  2.6474e+01  5.4451e-06  7.8803e-06  2.1955e-06  0:00:02   11
  1990  5.9391e-06  1.8249e-05  5.1988e-06  2.6532e+01  5.4532e-06  7.8956e-06  2.2023e-06  0:00:02   10
  1991  5.9454e-06  1.8254e-05  5.2003e-06  2.6591e+01  5.4612e-06  7.9078e-06  2.2087e-06  0:00:01    9

  iter  continuity  x-velocity  y-velocity  z-velocity      energy           k       omega     time/iter
  1992  5.9517e-06  1.8259e-05  5.2021e-06  2.6650e+01  5.4691e-06  7.9466e-06  2.2150e-06  0:00:01    8
  1993  5.9581e-06  1.8263e-05  5.2039e-06  2.6709e+01  5.4772e-06  7.9723e-06  2.2219e-06  0:00:01    7
  1994  5.9645e-06  1.8267e-05  5.2059e-06  2.6769e+01  5.4853e-06  7.9903e-06  2.2288e-06  0:00:00    6
  1995  5.9715e-06  1.8271e-05  5.2075e-06  2.6828e+01  5.4941e-06  8.0029e-06  2.2354e-06  0:00:00    5
  1996  5.9784e-06  1.8276e-05  5.2092e-06  2.6889e+01  5.5028e-06  8.0143e-06  2.2422e-06  0:00:00    4
  1997  5.9845e-06  1.8280e-05  5.2108e-06  2.6949e+01  5.5106e-06  8.0260e-06  2.2485e-06  0:00:00    3
  1998  5.9899e-06  1.8283e-05  5.2129e-06  2.7010e+01  5.5176e-06  8.0419e-06  2.2522e-06  0:00:00    2
  1999  5.9946e-06  1.8285e-05  5.2154e-06  2.7070e+01  5.5240e-06  8.0540e-06  2.2556e-06  0:00:00    1
  2000  5.9985e-06  1.8288e-05  5.2179e-06  2.7131e+01  5.5296e-06  8.0637e-06  2.2595e-06  0:00:00    0

> 
adjoint/                parallel/               server/
define/                 parametric-study/       solve/
display/                plot/                   surface/
exit                    preferences/            turbo-workflow/
file/                   print-license-usage     views/
mesh/                   report/

> /file/write-case-data project1
Fast-loading "C:\PROGRA~1\ANSYSI~1\v231\fluent\fluent23.1.0\\addons\afd\lib\hdfio.bin"
Done.

Writing to Engs-30669:"C:\Users\kebl7595\Desktop\CFD\Runs\Viscous\Mach 0.3\15 degrees\project1.cas.h5" in NODE0 mode and compression level 1 ...
       12996 cells,     1 zone  ...
       43722 faces,     8 zones ...
       17864 nodes,     1 zone  ...
  Done.
Done.

Writing to Engs-30669:"C:\Users\kebl7595\Desktop\CFD\Runs\Viscous\Mach 0.3\15 degrees\project1.dat.h5" in NODE0 mode and compression level 1 ...
  Writing results.
Done.

> /file/export/ascii "./surface.dat" wing te () no pressure mach-number quit no

Writing "./surface.dat"...

Writing information to ascii file ...
Done.


> /report/forces/wall-forces y -0.25882 0.96593 0 y "Lift"

> /report/forces/wall-forces y 0.96593 0.25882 0 y "Drag"

> /exit

Posting ANSYS Product Improvement Program performance data 
Done.
Auto-Transcript Stop Time:  14:01:37, 21 May 2024 GMT Daylight Time 
Total Transcript Time: 4 Minute 17 Second.
