Auto-Transcript Start Time:  10:10:37, 22 May 2024 GMT Daylight Time 
Current Directory: "C:\Users\kebl7595\Desktop\CFD\Runs\Flap\30 degree"

              Welcome to ANSYS Fluent 2023 R1

              Copyright 1987-2023 ANSYS, Inc. All Rights Reserved.
              Unauthorized use, distribution or duplication is prohibited.
              This product is subject to U.S. laws governing export and re-export.
              For full Legal Notice, see documentation.

Build Time: Nov 28 2022 09:52:02 EST  Build Id: 10208  
 
Connected License Server List:	1055@ansyslic.eng.ox.ac.uk

*********************************************
Info: Your license enables 4-way parallel execution.
For faster simulations, please start the application with the appropriate parallel options.
*********************************************


     --------------------------------------------------------------
     This is an academic version of ANSYS FLUENT. Usage of this product
     license is limited to the terms and conditions specified in your ANSYS
     license form, additional terms section.
     --------------------------------------------------------------
Host spawning Node 0 on machine "Engs-30669" (win64).

------------------------------------------------------------------------------------
ID    Hostname    Core  O.S.         PID    Vendor                                 
------------------------------------------------------------------------------------
n0    Engs-30669  1/32  Windows-x64  26144  13th Gen Intel(R) Core(TM) i9-13900    
host  Engs-30669        Windows-x64  18336  13th Gen Intel(R) Core(TM) i9-13900    

MPI Option Selected: intel
------------------------------------------------------------------------------------

Cleanup script file is C:\\Users\\kebl7595\\Desktop\\CFD\\Runs\\Flap\\30 degree\\cleanup-fluent-Engs-30669-18336.bat

Posting ANSYS Product Improvement Program startup data
Done.

Reading journal file C:/Users/kebl7595/Desktop/CFD/Runs/Flap/30 degree/project1.jou...

> /file/set-batch-options no no no 

> 
define/                 parametric-study/       solve/
display/                plot/                   surface/
exit                    preferences/            switch-to-meshing-mode
file/                   print-license-usage     turbo-workflow/
mesh/                   report/                 views/
parallel/               server/

> /file/import/cgns/mesh  "./project1.cgns"
Engs-30669 is already loaded (24.6515).                       Process affinity not being set.

Importing "./project1.cgns"

Opening library "C:\\PROGRA~1\\ANSYSI~1\\v231\\fluent\\fluent23.1.0\\vki\\win64\\devtools4.4.6.dll"... done.

Read    33000 nodes
   24072 hexahedral cells, zone  1
   17404 quadrilateral wall faces, zone  2.
   63040 quadrilateral interior faces, zone  3.
     474 quadrilateral interface faces, zone  4.

Building...
     mesh
     materials,
     interface,
     domains,
     zones,
	interface-default_subface
	default_interior-1
	default_subface
	default
     parallel,
The automatic selection for flux type has changed to Rhie-Chow: momentum based.

Done.


> 
adjoint/                parallel/               server/
define/                 parametric-study/       solve/
display/                plot/                   surface/
exit                    preferences/            turbo-workflow/
file/                   print-license-usage     views/
mesh/                   report/

> /define/models/solver/density-based-implicit yes

> 
adjoint/                parallel/               server/
define/                 parametric-study/       solve/
display/                plot/                   surface/
exit                    preferences/            turbo-workflow/
file/                   print-license-usage     views/
mesh/                   report/

> /define/models/energy? yes yes invalid command [yes]
yes

> /define/models/viscous/kw-standard? yes

> 
adjoint/                parallel/               server/
define/                 parametric-study/       solve/
display/                plot/                   surface/
exit                    preferences/            turbo-workflow/
file/                   print-license-usage     views/
mesh/                   report/

> /define/materials/change-create air air air is a fluid
yes 
Density
ideal-gas no data required.

no no no no no no

> 
adjoint/                parallel/               server/
define/                 parametric-study/       solve/
display/                plot/                   surface/
exit                    preferences/            turbo-workflow/
file/                   print-license-usage     views/
mesh/                   report/

> /mesh/modify-zones/sep-face-zone-angle 2 90 yes

 8024 faces in contiguous region 0
 441 faces in contiguous region 1
 618 faces in contiguous region 2
 8024 faces in contiguous region 3
 297 faces in contiguous region 4
 Separates zone 2 into 5 zone(s).
Updating new zone information...
   created new zone default_subface:009 from default_subface
   created new zone default_subface:008 from default_subface
   created new zone default_subface:007 from default_subface
   created new zone default_subface:006 from default_subface
done.

> 
adjoint/                parallel/               server/
define/                 parametric-study/       solve/
display/                plot/                   surface/
exit                    preferences/            turbo-workflow/
file/                   print-license-usage     views/
mesh/                   report/

> /define/boundary-conditions/zone-name  6 wing

> /define/boundary-conditions/zone-name  2 sym1

> /define/boundary-conditions/zone-name  8 sym2

> 
adjoint/                parallel/               server/
define/                 parametric-study/       solve/
display/                plot/                   surface/
exit                    preferences/            turbo-workflow/
file/                   print-license-usage     views/
mesh/                   report/

> /define/boundary-conditions/zone-name  7 far1

> /define/boundary-conditions/zone-name 9 far2

> 
adjoint/                parallel/               server/
define/                 parametric-study/       solve/
display/                plot/                   surface/
exit                    preferences/            turbo-workflow/
file/                   print-license-usage     views/
mesh/                   report/

> /define/boundary-conditions/zone-type  7 pressure-far-field

> /define/boundary-conditions/zone-type 9 pressure-far-field

> /define/boundary-conditions/zone-type  2 symmetry

> /define/boundary-conditions/zone-type  8 symmetry

> 
adjoint/                parallel/               server/
define/                 parametric-study/       solve/
display/                plot/                   surface/
exit                    preferences/            turbo-workflow/
file/                   print-license-usage     views/
mesh/                   report/

> /define/boundary-conditions/pressure-far-field (far2 far1)
far1 no 0 no 0.1 no 300 yes no 0.86603 no -0.5 no 0. no yes 5 0.02

> /define/boundary-conditions/pressure-far-field (far2 far1)
far2 no 0 no 0.1 no 300 yes no 0.86603 no -0.5 no 0. no yes 5 0.02

> 
adjoint/                parallel/               server/
define/                 parametric-study/       solve/
display/                plot/                   surface/
exit                    preferences/            turbo-workflow/
file/                   print-license-usage     views/
mesh/                   report/

> /solve/initialize/compute-defaults/pressure-far-field (far2 far1)
far1

> /solve/initialize/initialize-flow

> 
adjoint/                parallel/               server/
define/                 parametric-study/       solve/
display/                plot/                   surface/
exit                    preferences/            turbo-workflow/
file/                   print-license-usage     views/
mesh/                   report/

> /solve/monitors/residual/convergence-criteria 1.e-9 1.e-9 1.e-9 1.e-9 1.e-9 1.e-9 1.e-9

> /solve/iterate 2000

  iter  continuity  x-velocity  y-velocity  z-velocity      energy           k       omega     time/iter
     1  1.0000e+00  1.0000e+00  1.0000e+00  1.0000e+00  1.0000e+00  4.1293e-02  4.9327e-02  0:00:00 1999
     2  4.5960e-01  2.5565e-01  2.9276e-01  1.0000e+00  4.6191e-01  3.6474e-02  3.4039e-02  0:33:18 1998
     3  2.1036e-01  1.4331e-01  1.8519e-01  1.0000e+00  2.1066e-01  3.2376e-02  2.8083e-02  0:33:17 1997
     4  1.5383e-01  8.1881e-02  1.2138e-01  9.3984e-01  1.5443e-01  2.9046e-02  2.4644e-02  0:26:37 1996
     5  1.2465e-01  5.6341e-02  9.9501e-02  9.9472e-01  1.2548e-01  2.6407e-02  2.2666e-02  0:21:17 1995
     6  1.0365e-01  3.9841e-02  8.5513e-02  9.5098e-01  1.0440e-01  2.4194e-02  2.1089e-02  0:23:40 1994
     7  8.7416e-02  2.6937e-02  7.4246e-02  9.3467e-01  8.7978e-02  2.2322e-02  1.9698e-02  0:18:55 1993
     8  7.7734e-02  1.8726e-02  6.7061e-02  8.9875e-01  7.8198e-02  2.0686e-02  1.8519e-02  0:15:08 1992
     9  7.0597e-02  1.5198e-02  6.3550e-02  9.3421e-01  7.1012e-02  1.9238e-02  1.7408e-02  0:12:06 1991
    10  6.2906e-02  1.4622e-02  6.2616e-02  9.8268e-01  6.3259e-02  1.7984e-02  1.6385e-02  0:16:18 1990
    11  5.6442e-02  1.4981e-02  6.4513e-02  9.7440e-01  5.6734e-02  1.6904e-02  1.5464e-02  0:13:02 1989

  iter  continuity  x-velocity  y-velocity  z-velocity      energy           k       omega     time/iter
    12  5.1877e-02  1.5144e-02  6.8482e-02  8.9502e-01  5.2114e-02  1.5982e-02  1.4645e-02  0:10:26 1988
    13  4.9739e-02  1.4783e-02  7.4262e-02  8.5437e-01  4.9943e-02  1.5212e-02  1.3909e-02  0:14:58 1987
    14  4.9733e-02  1.3878e-02  8.1310e-02  8.9628e-01  4.9923e-02  1.4585e-02  1.3283e-02  0:11:58 1986
    15  5.1096e-02  1.2684e-02  8.7881e-02  1.0157e+00  5.1278e-02  1.4036e-02  1.2754e-02  0:09:34 1985
    16  5.3795e-02  1.1671e-02  9.3131e-02  1.1642e+00  5.3982e-02  1.3547e-02  1.2279e-02  0:14:16 1984
    17  5.7479e-02  1.1203e-02  9.6845e-02  1.3227e+00  5.7680e-02  1.3108e-02  1.1846e-02  0:11:24 1983
    18  6.1715e-02  1.1583e-02  9.9051e-02  1.4697e+00  6.1935e-02  1.2729e-02  1.1485e-02  0:09:07 1982
    19  6.4914e-02  1.2430e-02  1.0024e-01  1.5879e+00  6.5151e-02  1.2416e-02  1.1139e-02  0:13:54 1981
    20  6.7515e-02  1.3760e-02  1.0073e-01  1.6733e+00  6.7775e-02  1.2158e-02  1.0857e-02  0:11:07 1980
    21  6.7300e-02  1.4836e-02  9.8877e-02  1.7210e+00  6.7551e-02  1.1944e-02  1.0615e-02  0:08:53 1979
    22  6.5218e-02  1.6131e-02  9.6579e-02  1.7327e+00  6.5445e-02  1.1777e-02  1.0429e-02  0:13:42 1978

  iter  continuity  x-velocity  y-velocity  z-velocity      energy           k       omega     time/iter
    23  6.0924e-02  1.7239e-02  9.4366e-02  1.7097e+00  6.1108e-02  1.1651e-02  1.0197e-02  0:10:57 1977
    24  5.5189e-02  1.7748e-02  9.1672e-02  1.6627e+00  5.5324e-02  1.1565e-02  1.0059e-02  0:08:45 1976
    25  4.8986e-02  1.7587e-02  8.8741e-02  1.5965e+00  4.9072e-02  1.1529e-02  9.9038e-03  0:13:35 1975
    26  4.3135e-02  1.6988e-02  8.5994e-02  1.5236e+00  4.3180e-02  1.1502e-02  9.7600e-03  0:10:52 1974
    27  3.8117e-02  1.6003e-02  8.3212e-02  1.4483e+00  3.8137e-02  1.1491e-02  9.5133e-03  0:15:16 1973
    28  3.4456e-02  1.4648e-02  8.0744e-02  1.3701e+00  3.4467e-02  1.1494e-02  9.3134e-03  0:12:12 1972
    29  3.2349e-02  1.3098e-02  7.8629e-02  1.2904e+00  3.2364e-02  1.1482e-02  9.1911e-03  0:09:45 1971
    30  3.1396e-02  1.1534e-02  7.6873e-02  1.2125e+00  3.1420e-02  1.1494e-02  9.0155e-03  0:14:22 1970
    31  3.0988e-02  1.0010e-02  7.5341e-02  1.1419e+00  3.1020e-02  1.1485e-02  8.7640e-03  0:11:29 1969
    32  3.1097e-02  8.6926e-03  7.3936e-02  1.0763e+00  3.1138e-02  1.1457e-02  8.5744e-03  0:09:11 1968
    33  3.1483e-02  7.7476e-03  7.2673e-02  1.0165e+00  3.1531e-02  1.1445e-02  8.4231e-03  0:13:54 1967

  iter  continuity  x-velocity  y-velocity  z-velocity      energy           k       omega     time/iter
    34  3.1917e-02  6.9872e-03  7.1443e-02  9.6270e-01  3.1968e-02  1.1448e-02  8.2454e-03  0:11:07 1966
    35  3.2260e-02  6.2987e-03  7.0212e-02  9.1599e-01  3.2310e-02  1.1431e-02  8.0787e-03  0:08:53 1965
    36  3.2325e-02  5.7183e-03  6.8966e-02  8.7454e-01  3.2370e-02  1.1431e-02  7.9606e-03  0:13:39 1964
    37  3.2138e-02  5.2865e-03  6.7699e-02  8.2929e-01  3.2174e-02  1.1448e-02  7.8595e-03  0:10:55 1963
    38  3.1796e-02  4.9396e-03  6.6314e-02  7.8813e-01  3.1820e-02  1.1489e-02  7.7500e-03  0:08:44 1962
    39  3.1380e-02  4.7168e-03  6.4806e-02  7.4447e-01  3.1391e-02  1.1545e-02  7.6832e-03  0:13:31 1961
    40  3.0768e-02  4.5736e-03  6.3121e-02  7.0234e-01  3.0765e-02  1.1600e-02  7.6322e-03  0:10:48 1960
    41  3.0149e-02  4.4780e-03  6.1323e-02  6.6148e-01  3.0131e-02  1.1670e-02  7.5917e-03  0:08:39 1959
    42  2.9544e-02  4.4486e-03  5.9394e-02  6.2399e-01  2.9514e-02  1.1752e-02  7.5662e-03  0:13:26 1958
    43  2.9002e-02  4.4840e-03  5.7389e-02  5.9016e-01  2.8960e-02  1.1824e-02  7.5866e-03  0:10:45 1957
    44  2.8440e-02  4.5615e-03  5.5371e-02  5.6089e-01  2.8389e-02  1.1922e-02  7.6023e-03  0:08:35 1956

  iter  continuity  x-velocity  y-velocity  z-velocity      energy           k       omega     time/iter
    45  2.7908e-02  4.6546e-03  5.3426e-02  5.3594e-01  2.7851e-02  1.2017e-02  7.6320e-03  0:06:52 1955
    46  2.7607e-02  4.7482e-03  5.1644e-02  5.1470e-01  2.7549e-02  1.2111e-02  7.6552e-03  0:12:00 1954
    47  2.7751e-02  4.9036e-03  5.0107e-02  5.0217e-01  2.7696e-02  1.2216e-02  7.6955e-03  0:09:36 1953
    48  2.8581e-02  5.1174e-03  4.8899e-02  4.9817e-01  2.8536e-02  1.2336e-02  7.7279e-03  0:07:41 1952
    49  3.0187e-02  5.3717e-03  4.8112e-02  5.0287e-01  3.0158e-02  1.2444e-02  7.7477e-03  0:12:38 1951
    50  3.2362e-02  5.7191e-03  4.7829e-02  5.1415e-01  3.2352e-02  1.2554e-02  7.7953e-03  0:10:06 1950
    51  3.4917e-02  6.1144e-03  4.8093e-02  5.3017e-01  3.4930e-02  1.2663e-02  7.8228e-03  0:08:05 1949
    52  3.7767e-02  6.5183e-03  4.8867e-02  5.4788e-01  3.7806e-02  1.2753e-02  7.8619e-03  0:12:57 1948
    53  4.0792e-02  6.9043e-03  5.0018e-02  5.6560e-01  4.0858e-02  1.2888e-02  7.9323e-03  0:10:22 1947
    54  4.3852e-02  7.2038e-03  5.1640e-02  5.8199e-01  4.3946e-02  1.3024e-02  7.9830e-03  0:08:17 1946
    55  4.7371e-02  7.4803e-03  5.3377e-02  5.9623e-01  4.7493e-02  1.3200e-02  8.0612e-03  0:13:06 1945

  iter  continuity  x-velocity  y-velocity  z-velocity      energy           k       omega     time/iter
    56  5.1233e-02  7.7172e-03  5.5454e-02  6.0844e-01  5.1385e-02  1.3411e-02  8.1512e-03  0:10:29 1944
    57  5.4387e-02  7.9097e-03  5.7289e-02  6.1501e-01  5.4563e-02  1.3654e-02  8.2355e-03  0:08:23 1943
    58  5.7062e-02  8.0139e-03  5.8720e-02  6.1841e-01  5.7258e-02  1.3912e-02  8.3331e-03  0:13:10 1942
    59  5.8332e-02  7.7952e-03  5.9159e-02  6.1349e-01  5.8531e-02  1.4263e-02  8.4833e-03  0:10:32 1941
    60  5.7858e-02  7.2189e-03  5.8546e-02  6.0336e-01  5.8043e-02  1.4549e-02  8.5952e-03  0:08:25 1940
    61  5.6417e-02  6.5893e-03  5.7259e-02  5.8988e-01  5.6580e-02  1.5009e-02  8.6942e-03  0:13:12 1939
    62  5.4233e-02  5.9908e-03  5.5335e-02  5.7645e-01  5.4366e-02  1.5489e-02  8.7941e-03  0:10:33 1938
    63  5.1621e-02  5.5888e-03  5.2881e-02  5.6563e-01  5.1727e-02  1.5944e-02  8.8428e-03  0:08:26 1937
    64  4.8746e-02  5.2686e-03  5.0735e-02  5.5506e-01  4.8829e-02  1.6668e-02  8.8850e-03  0:13:12 1936
    65  4.5582e-02  4.9881e-03  4.8443e-02  5.4520e-01  4.5647e-02  1.7316e-02  8.9435e-03  0:10:33 1935
    66  4.2362e-02  4.7090e-03  4.5973e-02  5.3471e-01  4.2414e-02  1.8069e-02  9.0465e-03  0:08:26 1934

  iter  continuity  x-velocity  y-velocity  z-velocity      energy           k       omega     time/iter
    67  3.9773e-02  4.4866e-03  4.3910e-02  5.2370e-01  3.9815e-02  1.9038e-02  9.1500e-03  0:13:11 1933
    68  3.8742e-02  4.3575e-03  4.2234e-02  5.1269e-01  3.8773e-02  2.0125e-02  9.1604e-03  0:10:33 1932
    69  3.8283e-02  4.3111e-03  4.0639e-02  5.0337e-01  3.8307e-02  2.0981e-02  9.2207e-03  0:08:26 1931
    70  3.7526e-02  4.3186e-03  3.8613e-02  4.9224e-01  3.7547e-02  2.2175e-02  9.3107e-03  0:13:11 1930
    71  3.6411e-02  4.3354e-03  3.6612e-02  4.7856e-01  3.6431e-02  2.3346e-02  9.3487e-03  0:10:32 1929
    72  3.5186e-02  4.3164e-03  3.4797e-02  4.6337e-01  3.5203e-02  2.4747e-02  9.3748e-03  0:08:25 1928
    73  3.3637e-02  4.3092e-03  3.2871e-02  4.5048e-01  3.3651e-02  2.6002e-02  9.4193e-03  0:06:44 1927
    74  3.1924e-02  4.3867e-03  3.0794e-02  4.3929e-01  3.1931e-02  2.7406e-02  9.4248e-03  0:11:48 1926
    75  3.0035e-02  4.4906e-03  2.8933e-02  4.3398e-01  3.0032e-02  2.8590e-02  9.4141e-03  0:09:26 1925
    76  2.8165e-02  4.5748e-03  2.7147e-02  4.3651e-01  2.8150e-02  2.9291e-02  9.4075e-03  0:07:33 1924
    77  2.6379e-02  4.5952e-03  2.5493e-02  4.4545e-01  2.6353e-02  3.0590e-02  9.3886e-03  0:12:27 1923

  iter  continuity  x-velocity  y-velocity  z-velocity      energy           k       omega     time/iter
    78  2.4963e-02  4.5472e-03  2.4077e-02  4.6140e-01  2.4927e-02  3.2056e-02  9.3927e-03  0:09:57 1922
    79  2.4131e-02  4.5398e-03  2.3053e-02  4.8411e-01  2.4090e-02  3.3383e-02  9.3541e-03  0:07:57 1921
    80  2.3891e-02  4.5763e-03  2.2720e-02  5.1206e-01  2.3851e-02  3.4324e-02  9.2750e-03  0:12:46 1920
    81  2.4017e-02  4.6737e-03  2.3029e-02  5.4428e-01  2.3981e-02  3.4277e-02  9.3111e-03  0:10:12 1919
    82  2.4252e-02  4.8017e-03  2.3567e-02  5.7697e-01  2.4223e-02  3.5312e-02  9.4267e-03  0:08:10 1918
    83  2.4530e-02  5.0163e-03  2.4304e-02  6.0985e-01  2.4508e-02  3.6233e-02  9.4276e-03  0:12:55 1917
    84  2.4895e-02  5.3111e-03  2.5088e-02  6.4620e-01  2.4881e-02  3.6736e-02  9.4077e-03  0:10:20 1916
    85  2.5137e-02  5.6266e-03  2.5911e-02  6.8214e-01  2.5129e-02  3.6320e-02  9.3512e-03  0:08:15 1915
    86  2.5163e-02  5.9488e-03  2.6694e-02  7.1634e-01  2.5158e-02  3.6147e-02  9.3646e-03  0:12:59 1914
    87  2.4922e-02  6.2335e-03  2.7388e-02  7.4776e-01  2.4918e-02  3.7431e-02  9.3849e-03  0:16:45 1913
    88  2.4506e-02  6.5270e-03  2.7950e-02  7.7875e-01  2.4501e-02  3.7971e-02  9.3254e-03  0:13:24 1912

  iter  continuity  x-velocity  y-velocity  z-velocity      energy           k       omega     time/iter
    89  2.3998e-02  6.7674e-03  2.8258e-02  8.1087e-01  2.3992e-02  3.8107e-02  9.2711e-03  0:10:43 1911
    90  2.3456e-02  6.8756e-03  2.8307e-02  8.4515e-01  2.3447e-02  3.7412e-02  9.1417e-03  0:14:56 1910
    91  2.3066e-02  6.8148e-03  2.8092e-02  8.7712e-01  2.3054e-02  3.6435e-02  9.0111e-03  0:18:18 1909
    92  2.2714e-02  6.6860e-03  2.7744e-02  9.1127e-01  2.2699e-02  3.5830e-02  8.9294e-03  0:14:38 1908
    93  2.2414e-02  6.4350e-03  2.7301e-02  9.4810e-01  2.2398e-02  3.5666e-02  8.8470e-03  0:18:04 1907
    94  2.2153e-02  6.1712e-03  2.6806e-02  9.8635e-01  2.2136e-02  3.5362e-02  8.7070e-03  0:14:26 1906
    95  2.2033e-02  5.9204e-03  2.6346e-02  1.0136e+00  2.2015e-02  3.5076e-02  8.5523e-03  0:17:54 1905
    96  2.2063e-02  5.6943e-03  2.5883e-02  1.0410e+00  2.2046e-02  3.4561e-02  8.3278e-03  0:14:19 1904
    97  2.2082e-02  5.4812e-03  2.5394e-02  1.0641e+00  2.2067e-02  3.3475e-02  8.0427e-03  0:17:47 1903
    98  2.2058e-02  5.2787e-03  2.4963e-02  1.0828e+00  2.2047e-02  3.1672e-02  7.8184e-03  0:14:13 1902
    99  2.2109e-02  5.1058e-03  2.4519e-02  1.1143e+00  2.2102e-02  3.0203e-02  7.6236e-03  0:17:42 1901

  iter  continuity  x-velocity  y-velocity  z-velocity      energy           k       omega     time/iter
   100  2.2354e-02  4.9339e-03  2.4081e-02  1.1465e+00  2.2351e-02  2.9412e-02  7.4757e-03  0:14:09 1900
   101  2.2669e-02  4.8185e-03  2.3631e-02  1.1439e+00  2.2670e-02  2.8779e-02  7.2981e-03  0:17:39 1899
   102  2.2965e-02  4.7514e-03  2.3179e-02  1.1408e+00  2.2971e-02  2.7987e-02  7.1377e-03  0:14:07 1898
   103  2.3368e-02  4.7132e-03  2.2726e-02  1.1379e+00  2.3378e-02  2.7187e-02  6.9705e-03  0:17:36 1897
   104  2.3960e-02  4.7031e-03  2.2197e-02  1.1346e+00  2.3972e-02  2.6486e-02  6.7426e-03  0:14:05 1896
   105  2.4531e-02  4.7156e-03  2.1657e-02  1.1686e+00  2.4545e-02  2.5340e-02  6.5480e-03  0:17:34 1895
   106  2.4827e-02  4.7795e-03  2.1128e-02  1.2151e+00  2.4841e-02  2.4130e-02  6.4201e-03  0:14:03 1894
   107  2.4871e-02  4.8662e-03  2.0686e-02  1.2217e+00  2.4884e-02  2.2940e-02  6.2749e-03  0:17:33 1893
   108  2.4610e-02  4.9657e-03  2.0268e-02  1.1969e+00  2.4622e-02  2.2251e-02  6.1537e-03  0:20:20 1892
   109  2.4039e-02  5.0704e-03  1.9908e-02  1.1698e+00  2.4048e-02  2.1713e-02  6.0433e-03  0:16:16 1891
   110  2.3143e-02  5.1661e-03  1.9587e-02  1.1559e+00  2.3147e-02  2.1231e-02  6.0109e-03  0:19:18 1890

  iter  continuity  x-velocity  y-velocity  z-velocity      energy           k       omega     time/iter
   111  2.2025e-02  5.2561e-03  1.9348e-02  1.1463e+00  2.2024e-02  2.0947e-02  5.9852e-03  0:15:26 1889
   112  2.0767e-02  5.3175e-03  1.9197e-02  1.1515e+00  2.0761e-02  2.0544e-02  5.9778e-03  0:18:38 1888
   113  1.9417e-02  5.3436e-03  1.9091e-02  1.1698e+00  1.9404e-02  2.0131e-02  5.9833e-03  0:14:54 1887
   114  1.8140e-02  5.3420e-03  1.9030e-02  1.1996e+00  1.8121e-02  1.9838e-02  5.9626e-03  0:18:12 1886
   115  1.7005e-02  5.3176e-03  1.8969e-02  1.2350e+00  1.6979e-02  1.9551e-02  5.9706e-03  0:14:33 1885
   116  1.6126e-02  5.2760e-03  1.8935e-02  1.2950e+00  1.6095e-02  1.9271e-02  5.9975e-03  0:17:55 1884
   117  1.5742e-02  5.2308e-03  1.8926e-02  1.3839e+00  1.5707e-02  1.8977e-02  6.0238e-03  0:14:19 1883
   118  1.5727e-02  5.1881e-03  1.8981e-02  1.5002e+00  1.5690e-02  1.8638e-02  6.0415e-03  0:17:44 1882
   119  1.5786e-02  5.1541e-03  1.9089e-02  1.6482e+00  1.5748e-02  1.8444e-02  6.0641e-03  0:14:10 1881
   120  1.6053e-02  5.1244e-03  1.9279e-02  1.8153e+00  1.6016e-02  1.8293e-02  6.0863e-03  0:17:36 1880
   121  1.6463e-02  5.1097e-03  1.9576e-02  2.0026e+00  1.6429e-02  1.8144e-02  6.1075e-03  0:14:04 1879

  iter  continuity  x-velocity  y-velocity  z-velocity      energy           k       omega     time/iter
   122  1.6973e-02  5.1118e-03  1.9956e-02  2.2076e+00  1.6941e-02  1.8058e-02  6.0984e-03  0:17:31 1878
   123  1.7513e-02  5.1424e-03  2.0408e-02  2.4256e+00  1.7485e-02  1.7792e-02  6.0885e-03  0:14:00 1877
   124  1.7998e-02  5.1876e-03  2.0934e-02  2.6444e+00  1.7972e-02  1.7585e-02  6.1301e-03  0:17:27 1876
   125  1.8392e-02  5.2496e-03  2.1433e-02  2.8505e+00  1.8368e-02  1.7592e-02  6.1595e-03  0:13:57 1875
   126  1.8699e-02  5.3256e-03  2.1877e-02  3.0339e+00  1.8676e-02  1.7659e-02  6.1605e-03  0:17:24 1874
   127  1.8951e-02  5.4217e-03  2.2236e-02  3.2039e+00  1.8930e-02  1.7646e-02  6.1828e-03  0:13:55 1873
   128  1.9046e-02  5.4792e-03  2.2488e-02  3.3596e+00  1.9026e-02  1.7530e-02  6.1881e-03  0:17:22 1872
   129  1.8810e-02  5.4950e-03  2.2655e-02  3.5084e+00  1.8789e-02  1.7397e-02  6.2184e-03  0:13:53 1871
   130  1.8497e-02  5.5125e-03  2.2761e-02  3.6323e+00  1.8475e-02  1.7336e-02  6.2308e-03  0:17:20 1870
   131  1.8270e-02  5.5041e-03  2.2836e-02  3.7291e+00  1.8247e-02  1.7319e-02  6.2265e-03  0:13:52 1869
   132  1.8046e-02  5.4731e-03  2.2871e-02  3.8032e+00  1.8022e-02  1.7237e-02  6.2172e-03  0:17:19 1868

  iter  continuity  x-velocity  y-velocity  z-velocity      energy           k       omega     time/iter
   133  1.7853e-02  5.4307e-03  2.2815e-02  3.8648e+00  1.7829e-02  1.7042e-02  6.2324e-03  0:13:50 1867
   134  1.7662e-02  5.3880e-03  2.2731e-02  3.9123e+00  1.7638e-02  1.6777e-02  6.2233e-03  0:17:17 1866
   135  1.7470e-02  5.3454e-03  2.2548e-02  3.9444e+00  1.7447e-02  1.6525e-02  6.2039e-03  0:13:49 1865
   136  1.7244e-02  5.2945e-03  2.2286e-02  3.9584e+00  1.7221e-02  1.6310e-02  6.1750e-03  0:17:16 1864
   137  1.6996e-02  5.1927e-03  2.1992e-02  3.9546e+00  1.6974e-02  1.6105e-02  6.1425e-03  0:13:48 1863
   138  1.6670e-02  5.1049e-03  2.1742e-02  3.9037e+00  1.6650e-02  1.5844e-02  6.0980e-03  0:17:15 1862
   139  1.6313e-02  5.0122e-03  2.1594e-02  3.8322e+00  1.6294e-02  1.5602e-02  6.0592e-03  0:13:47 1861
   140  1.5881e-02  4.9040e-03  2.1550e-02  3.7637e+00  1.5864e-02  1.5325e-02  6.0156e-03  0:17:13 1860
   141  1.5475e-02  4.7855e-03  2.1579e-02  3.6888e+00  1.5460e-02  1.5123e-02  5.9405e-03  0:13:46 1859
   142  1.5149e-02  4.6477e-03  2.1636e-02  3.6091e+00  1.5137e-02  1.4966e-02  5.8483e-03  0:17:12 1858
   143  1.4819e-02  4.4870e-03  2.1709e-02  3.5234e+00  1.4811e-02  1.4805e-02  5.7589e-03  0:13:45 1857

  iter  continuity  x-velocity  y-velocity  z-velocity      energy           k       omega     time/iter
   144  1.4376e-02  4.3010e-03  2.1738e-02  3.4393e+00  1.4372e-02  1.4538e-02  5.6760e-03  0:17:11 1856
   145  1.4067e-02  4.0963e-03  2.1721e-02  3.3640e+00  1.4068e-02  1.4264e-02  5.5881e-03  0:13:44 1855
   146  1.4206e-02  3.8851e-03  2.1613e-02  3.2952e+00  1.4213e-02  1.3977e-02  5.5031e-03  0:17:10 1854
   147  1.4821e-02  3.6592e-03  2.1408e-02  3.2336e+00  1.4830e-02  1.3715e-02  5.4119e-03  0:13:44 1853
   148  1.5747e-02  3.4071e-03  2.1099e-02  3.1783e+00  1.5758e-02  1.3552e-02  5.3438e-03  0:10:59 1852
   149  1.6643e-02  3.1672e-03  2.0675e-02  3.1297e+00  1.6653e-02  1.3369e-02  5.2616e-03  0:14:57 1851
   150  1.7288e-02  2.9985e-03  2.0188e-02  3.0796e+00  1.7296e-02  1.3118e-02  5.1721e-03  0:11:57 1850
   151  1.7622e-02  2.9072e-03  1.9619e-02  3.0318e+00  1.7628e-02  1.2887e-02  5.0911e-03  0:15:43 1849
   152  1.7687e-02  2.8689e-03  1.9080e-02  2.9814e+00  1.7690e-02  1.2701e-02  5.0129e-03  0:12:34 1848
   153  1.7560e-02  2.8692e-03  1.8624e-02  2.9341e+00  1.7560e-02  1.2525e-02  4.9423e-03  0:16:12 1847
   154  1.7277e-02  2.8769e-03  1.8253e-02  2.8920e+00  1.7273e-02  1.2397e-02  4.8868e-03  0:12:57 1846

  iter  continuity  x-velocity  y-velocity  z-velocity      energy           k       omega     time/iter
   155  1.6891e-02  2.8787e-03  1.7964e-02  2.8533e+00  1.6884e-02  1.2241e-02  4.8418e-03  0:16:31 1845
   156  1.6442e-02  2.8548e-03  1.7551e-02  2.8144e+00  1.6432e-02  1.2029e-02  4.8172e-03  0:13:12 1844
   157  1.5933e-02  2.8044e-03  1.7338e-02  2.7718e+00  1.5919e-02  1.1806e-02  4.7974e-03  0:16:42 1843
   158  1.5416e-02  2.7610e-03  1.7220e-02  2.7369e+00  1.5398e-02  1.1643e-02  4.7804e-03  0:13:21 1842
   159  1.4908e-02  2.7142e-03  1.7152e-02  2.6977e+00  1.4888e-02  1.1509e-02  4.8095e-03  0:16:49 1841
   160  1.4434e-02  2.6767e-03  1.7113e-02  2.6613e+00  1.4411e-02  1.1400e-02  4.8588e-03  0:13:27 1840
   161  1.3983e-02  2.6505e-03  1.7121e-02  2.6372e+00  1.3957e-02  1.1265e-02  4.8965e-03  0:16:53 1839
   162  1.3568e-02  2.6409e-03  1.7185e-02  2.6204e+00  1.3540e-02  1.1127e-02  4.9491e-03  0:13:30 1838
   163  1.3173e-02  2.6381e-03  1.7304e-02  2.6139e+00  1.3144e-02  1.1053e-02  5.0283e-03  0:16:55 1837
   164  1.2815e-02  2.6473e-03  1.7464e-02  2.6121e+00  1.2785e-02  1.1010e-02  5.0846e-03  0:13:31 1836
   165  1.2466e-02  2.6656e-03  1.7672e-02  2.6200e+00  1.2434e-02  1.0970e-02  5.1409e-03  0:16:56 1835

  iter  continuity  x-velocity  y-velocity  z-velocity      energy           k       omega     time/iter
   166  1.2094e-02  2.6887e-03  1.7912e-02  2.6358e+00  1.2062e-02  1.1025e-02  5.1960e-03  0:13:32 1834
   167  1.1724e-02  2.7217e-03  1.8168e-02  2.6522e+00  1.1692e-02  1.1088e-02  5.2469e-03  0:16:56 1833
   168  1.1360e-02  2.7699e-03  1.8447e-02  2.6697e+00  1.1328e-02  1.1196e-02  5.2987e-03  0:13:32 1832
   169  1.1004e-02  2.8316e-03  1.8727e-02  2.6911e+00  1.0973e-02  1.1323e-02  5.3529e-03  0:16:56 1831
   170  1.0628e-02  2.8952e-03  1.9022e-02  2.7071e+00  1.0597e-02  1.1474e-02  5.4024e-03  0:13:32 1830
   171  1.0234e-02  2.9570e-03  1.9316e-02  2.7248e+00  1.0202e-02  1.1641e-02  5.4468e-03  0:16:55 1829
   172  9.8552e-03  3.0177e-03  1.9595e-02  2.7333e+00  9.8241e-03  1.1763e-02  5.4793e-03  0:13:32 1828
   173  9.5306e-03  3.0781e-03  1.9823e-02  2.7295e+00  9.5002e-03  1.1875e-02  5.5088e-03  0:16:54 1827
   174  9.2748e-03  3.1301e-03  2.0055e-02  2.7138e+00  9.2458e-03  1.1977e-02  5.5155e-03  0:13:31 1826
   175  9.1203e-03  3.1709e-03  2.0247e-02  2.6852e+00  9.0936e-03  1.2005e-02  5.5149e-03  0:16:53 1825
   176  9.1027e-03  3.2009e-03  2.0393e-02  2.6461e+00  9.0792e-03  1.2018e-02  5.4898e-03  0:13:30 1824

  iter  continuity  x-velocity  y-velocity  z-velocity      energy           k       omega     time/iter
   177  9.2877e-03  3.2202e-03  2.0478e-02  2.5968e+00  9.2687e-03  1.1903e-02  5.4667e-03  0:16:53 1823
   178  9.7228e-03  3.2315e-03  2.0517e-02  2.5376e+00  9.7093e-03  1.1814e-02  5.4231e-03  0:13:30 1822
   179  1.0414e-02  3.2362e-03  2.0513e-02  2.4768e+00  1.0406e-02  1.1672e-02  5.3877e-03  0:16:52 1821
   180  1.1357e-02  3.2334e-03  2.0466e-02  2.4122e+00  1.1355e-02  1.1516e-02  5.3637e-03  0:13:29 1820
   181  1.2553e-02  3.2266e-03  2.0379e-02  2.3471e+00  1.2557e-02  1.1413e-02  5.3609e-03  0:16:50 1819
   182  1.4013e-02  3.2259e-03  2.0256e-02  2.2921e+00  1.4023e-02  1.1290e-02  5.3677e-03  0:13:28 1818
   183  1.5751e-02  3.2295e-03  2.0096e-02  2.2449e+00  1.5767e-02  1.1229e-02  5.3783e-03  0:16:49 1817
   184  1.7718e-02  3.2349e-03  1.9917e-02  2.2106e+00  1.7739e-02  1.1127e-02  5.3865e-03  0:13:27 1816
   185  1.9740e-02  3.2515e-03  1.9721e-02  2.1890e+00  1.9766e-02  1.1082e-02  5.4344e-03  0:16:48 1815
   186  2.1504e-02  3.2810e-03  1.9524e-02  2.1819e+00  2.1534e-02  1.1006e-02  5.4541e-03  0:13:26 1814
   187  2.2991e-02  3.3253e-03  1.9360e-02  2.1946e+00  2.3024e-02  1.0847e-02  5.4868e-03  0:16:47 1813

  iter  continuity  x-velocity  y-velocity  z-velocity      energy           k       omega     time/iter
   188  2.4281e-02  3.3846e-03  1.9224e-02  2.2243e+00  2.4316e-02  1.0690e-02  5.5054e-03  0:13:25 1812
   189  2.5270e-02  3.4631e-03  1.9119e-02  2.2655e+00  2.5306e-02  1.0547e-02  5.5029e-03  0:16:46 1811
   190  2.5983e-02  3.5538e-03  1.9045e-02  2.2957e+00  2.6019e-02  1.0471e-02  5.5153e-03  0:13:24 1810
   191  2.6416e-02  3.6580e-03  1.9054e-02  2.3421e+00  2.6452e-02  1.0367e-02  5.5298e-03  0:16:45 1809
   192  2.6526e-02  3.7811e-03  1.9135e-02  2.3824e+00  2.6561e-02  1.0274e-02  5.5540e-03  0:13:24 1808
   193  2.6408e-02  3.9122e-03  1.9235e-02  2.4107e+00  2.6441e-02  1.0216e-02  5.5473e-03  0:16:44 1807
   194  2.5952e-02  4.0486e-03  1.9330e-02  2.4262e+00  2.5983e-02  1.0152e-02  5.5477e-03  0:13:23 1806
   195  2.5203e-02  4.1857e-03  1.9393e-02  2.4296e+00  2.5231e-02  1.0075e-02  5.5195e-03  0:16:43 1805
   196  2.4189e-02  4.3193e-03  1.9396e-02  2.4232e+00  2.4213e-02  1.0024e-02  5.4655e-03  0:13:22 1804
   197  2.2919e-02  4.4397e-03  1.9300e-02  2.4068e+00  2.2939e-02  9.8712e-03  5.4099e-03  0:16:42 1803
   198  2.1220e-02  4.5361e-03  1.9102e-02  2.3840e+00  2.1235e-02  9.7042e-03  5.4202e-03  0:13:21 1802

  iter  continuity  x-velocity  y-velocity  z-velocity      energy           k       omega     time/iter
   199  1.9249e-02  4.6051e-03  1.8788e-02  2.3529e+00  1.9259e-02  9.5774e-03  5.3915e-03  0:16:41 1801
   200  1.7123e-02  4.6342e-03  1.8355e-02  2.3161e+00  1.7129e-02  9.4892e-03  5.3469e-03  0:13:20 1800
   201  1.4989e-02  4.6168e-03  1.7833e-02  2.2750e+00  1.4990e-02  9.3813e-03  5.2961e-03  0:16:39 1799
   202  1.2922e-02  4.5543e-03  1.7226e-02  2.2250e+00  1.2918e-02  9.2710e-03  5.2804e-03  0:13:19 1798
   203  1.0967e-02  4.4523e-03  1.6572e-02  2.1645e+00  1.0959e-02  9.1545e-03  5.2380e-03  0:10:39 1797
   204  9.3060e-03  4.3238e-03  1.5923e-02  2.0933e+00  9.2945e-03  9.0497e-03  5.1810e-03  0:14:30 1796
   205  8.1017e-03  4.1692e-03  1.5320e-02  2.0171e+00  8.0878e-03  8.9592e-03  5.0910e-03  0:17:35 1795
   206  7.5039e-03  4.0044e-03  1.4808e-02  1.9348e+00  7.4897e-03  8.8951e-03  5.0236e-03  0:14:03 1794
   207  7.5693e-03  3.8443e-03  1.4428e-02  1.8544e+00  7.5575e-03  8.8920e-03  4.9864e-03  0:17:13 1793
   208  8.1528e-03  3.7008e-03  1.4175e-02  1.7829e+00  8.1447e-03  8.8968e-03  4.9651e-03  0:13:46 1792
   209  8.9937e-03  3.5818e-03  1.4020e-02  1.7237e+00  8.9891e-03  8.8974e-03  4.9358e-03  0:16:58 1791

  iter  continuity  x-velocity  y-velocity  z-velocity      energy           k       omega     time/iter
   210  9.8779e-03  3.4979e-03  1.3917e-02  1.6649e+00  9.8760e-03  8.9542e-03  4.9004e-03  0:13:34 1790
   211  1.0671e-02  3.4521e-03  1.3841e-02  1.6289e+00  1.0671e-02  9.0518e-03  4.8569e-03  0:16:49 1789
   212  1.1310e-02  3.4360e-03  1.3754e-02  1.5972e+00  1.1311e-02  9.1168e-03  4.8197e-03  0:13:27 1788
   213  1.1785e-02  3.4508e-03  1.3636e-02  1.5841e+00  1.1786e-02  9.1821e-03  4.7929e-03  0:16:42 1787
   214  1.2126e-02  3.4826e-03  1.3476e-02  1.5915e+00  1.2127e-02  9.2313e-03  4.7439e-03  0:13:21 1786
   215  1.2377e-02  3.5178e-03  1.3277e-02  1.6131e+00  1.2377e-02  9.2896e-03  4.7053e-03  0:16:38 1785
   216  1.2561e-02  3.5505e-03  1.3055e-02  1.6502e+00  1.2560e-02  9.3438e-03  4.6445e-03  0:13:18 1784
   217  1.2725e-02  3.5794e-03  1.2821e-02  1.6978e+00  1.2722e-02  9.3641e-03  4.5817e-03  0:16:34 1783
   218  1.2830e-02  3.5863e-03  1.2564e-02  1.7482e+00  1.2826e-02  9.3911e-03  4.5265e-03  0:13:15 1782
   219  1.2919e-02  3.5613e-03  1.2309e-02  1.7972e+00  1.2913e-02  9.4114e-03  4.4825e-03  0:10:36 1781
   220  1.3027e-02  3.5353e-03  1.2079e-02  1.8437e+00  1.3019e-02  9.3946e-03  4.4371e-03  0:14:24 1780

  iter  continuity  x-velocity  y-velocity  z-velocity      energy           k       omega     time/iter
   221  1.3104e-02  3.4936e-03  1.1887e-02  1.8878e+00  1.3094e-02  9.3572e-03  4.4083e-03  0:11:31 1779
   222  1.3204e-02  3.4300e-03  1.1742e-02  1.9171e+00  1.3194e-02  9.3105e-03  4.3617e-03  0:15:08 1778
   223  1.3272e-02  3.3618e-03  1.1624e-02  1.9302e+00  1.3260e-02  9.2287e-03  4.3057e-03  0:12:06 1777
   224  1.3271e-02  3.3009e-03  1.1521e-02  1.9260e+00  1.3258e-02  9.2021e-03  4.2404e-03  0:15:36 1776
   225  1.3191e-02  3.2509e-03  1.1437e-02  1.9109e+00  1.3176e-02  9.1570e-03  4.1887e-03  0:12:28 1775
   226  1.3008e-02  3.2113e-03  1.1378e-02  1.8837e+00  1.2993e-02  9.0794e-03  4.1369e-03  0:15:53 1774
   227  1.2712e-02  3.1775e-03  1.1342e-02  1.8489e+00  1.2696e-02  8.9859e-03  4.0913e-03  0:12:42 1773
   228  1.2275e-02  3.1400e-03  1.1324e-02  1.8139e+00  1.2258e-02  8.9396e-03  4.0528e-03  0:16:04 1772
   229  1.1730e-02  3.0976e-03  1.1327e-02  1.7702e+00  1.1712e-02  8.9059e-03  4.0115e-03  0:12:50 1771
   230  1.0978e-02  3.0600e-03  1.1314e-02  1.7121e+00  1.0960e-02  8.8648e-03  3.9648e-03  0:16:10 1770
   231  1.0130e-02  3.0117e-03  1.1278e-02  1.6436e+00  1.0112e-02  8.7993e-03  3.9271e-03  0:12:56 1769

  iter  continuity  x-velocity  y-velocity  z-velocity      energy           k       omega     time/iter
   232  9.3195e-03  2.9810e-03  1.1269e-02  1.5767e+00  9.3020e-03  8.7143e-03  3.8852e-03  0:16:14 1768
   233  9.0045e-03  2.9758e-03  1.1281e-02  1.5092e+00  8.9873e-03  8.7065e-03  3.8715e-03  0:12:59 1767
   234  9.6360e-03  2.9847e-03  1.1331e-02  1.4357e+00  9.6186e-03  8.7209e-03  3.8515e-03  0:16:16 1766
   235  1.0827e-02  2.9964e-03  1.1446e-02  1.3415e+00  1.0807e-02  8.7285e-03  3.8362e-03  0:18:53 1765
   236  1.1688e-02  3.0174e-03  1.1613e-02  1.2553e+00  1.1666e-02  8.7412e-03  3.8214e-03  0:15:06 1764
   237  1.2102e-02  3.0466e-03  1.1793e-02  1.1878e+00  1.2079e-02  8.7593e-03  3.7977e-03  0:17:57 1763
   238  1.2038e-02  3.0759e-03  1.1974e-02  1.1376e+00  1.2015e-02  8.7783e-03  3.7746e-03  0:14:21 1762
   239  1.1748e-02  3.0984e-03  1.2156e-02  1.1024e+00  1.1726e-02  8.7671e-03  3.7418e-03  0:17:21 1761
   240  1.1288e-02  3.1127e-03  1.2343e-02  1.0814e+00  1.1267e-02  8.7314e-03  3.7253e-03  0:13:52 1760
   241  1.0768e-02  3.1164e-03  1.2519e-02  1.0668e+00  1.0748e-02  8.7291e-03  3.7066e-03  0:16:57 1759
   242  1.0284e-02  3.1076e-03  1.2683e-02  1.0574e+00  1.0264e-02  8.7115e-03  3.6910e-03  0:13:33 1758

  iter  continuity  x-velocity  y-velocity  z-velocity      energy           k       omega     time/iter
   243  9.8163e-03  3.0886e-03  1.2827e-02  1.0506e+00  9.7960e-03  8.6373e-03  3.6593e-03  0:10:50 1757
   244  9.3765e-03  3.0617e-03  1.2954e-02  1.0457e+00  9.3559e-03  8.5690e-03  3.6360e-03  0:14:31 1756
   245  8.9464e-03  3.0276e-03  1.3076e-02  1.0502e+00  8.9255e-03  8.4907e-03  3.6155e-03  0:11:36 1755
   246  8.5917e-03  2.9816e-03  1.3046e-02  1.0594e+00  8.5704e-03  8.3948e-03  3.5891e-03  0:15:08 1754
   247  8.2750e-03  2.9334e-03  1.3090e-02  1.0706e+00  8.2533e-03  8.3033e-03  3.5497e-03  0:12:06 1753
   248  7.9655e-03  2.8915e-03  1.3148e-02  1.0817e+00  7.9436e-03  8.1985e-03  3.5057e-03  0:15:31 1752
   249  7.6990e-03  2.8552e-03  1.3192e-02  1.0928e+00  7.6773e-03  8.0878e-03  3.4523e-03  0:12:24 1751
   250  7.4819e-03  2.8211e-03  1.3216e-02  1.1009e+00  7.4607e-03  8.0064e-03  3.3979e-03  0:15:45 1750
   251  7.3472e-03  2.7879e-03  1.3228e-02  1.1075e+00  7.3269e-03  7.9424e-03  3.3453e-03  0:12:36 1749
   252  7.2641e-03  2.7538e-03  1.3235e-02  1.1140e+00  7.2450e-03  7.8912e-03  3.2816e-03  0:15:54 1748
   253  7.2397e-03  2.7190e-03  1.3238e-02  1.1186e+00  7.2221e-03  7.8948e-03  3.2400e-03  0:12:42 1747

  iter  continuity  x-velocity  y-velocity  z-velocity      energy           k       omega     time/iter
   254  7.3190e-03  2.6865e-03  1.3236e-02  1.1199e+00  7.3030e-03  7.8732e-03  3.1889e-03  0:15:59 1746
   255  7.4997e-03  2.6665e-03  1.3227e-02  1.1215e+00  7.4851e-03  7.8231e-03  3.1442e-03  0:12:47 1745
   256  7.7694e-03  2.6519e-03  1.3196e-02  1.1226e+00  7.7558e-03  7.8040e-03  3.1081e-03  0:16:02 1744
   257  8.1071e-03  2.6442e-03  1.3142e-02  1.1248e+00  8.0938e-03  7.7997e-03  3.0700e-03  0:12:49 1743
   258  8.4767e-03  2.6473e-03  1.3100e-02  1.1262e+00  8.4632e-03  7.8568e-03  3.0237e-03  0:10:15 1742
   259  8.8856e-03  2.6616e-03  1.3060e-02  1.1283e+00  8.8713e-03  7.9751e-03  2.9894e-03  0:14:00 1741
   260  9.2988e-03  2.6836e-03  1.3016e-02  1.1302e+00  9.2834e-03  8.0708e-03  2.9760e-03  0:11:11 1740
   261  9.7317e-03  2.7229e-03  1.2982e-02  1.1312e+00  9.7150e-03  8.1712e-03  2.9701e-03  0:14:45 1739
   262  1.0187e-02  2.8115e-03  1.2941e-02  1.1337e+00  1.0169e-02  8.2748e-03  2.9848e-03  0:11:47 1738
   263  1.0637e-02  2.9115e-03  1.2895e-02  1.1360e+00  1.0617e-02  8.3833e-03  2.9954e-03  0:15:13 1737
   264  1.1000e-02  3.0247e-03  1.2828e-02  1.1371e+00  1.0979e-02  8.4814e-03  3.0198e-03  0:12:10 1736

  iter  continuity  x-velocity  y-velocity  z-velocity      energy           k       omega     time/iter
   265  1.1348e-02  3.1350e-03  1.2717e-02  1.1396e+00  1.1325e-02  8.5337e-03  3.0591e-03  0:15:31 1735
   266  1.1625e-02  3.2324e-03  1.2619e-02  1.1407e+00  1.1601e-02  8.5800e-03  3.1119e-03  0:12:24 1734
   267  1.1841e-02  3.3168e-03  1.2492e-02  1.1417e+00  1.1816e-02  8.6651e-03  3.1711e-03  0:15:41 1733
   268  1.2026e-02  3.3929e-03  1.2373e-02  1.1431e+00  1.2000e-02  8.7519e-03  3.2240e-03  0:12:33 1732
   269  1.2160e-02  3.4629e-03  1.2299e-02  1.1492e+00  1.2133e-02  8.8287e-03  3.2704e-03  0:15:48 1731
   270  1.2223e-02  3.5225e-03  1.2221e-02  1.1584e+00  1.2195e-02  8.9483e-03  3.3220e-03  0:12:38 1730
   271  1.2228e-02  3.5694e-03  1.2146e-02  1.1640e+00  1.2200e-02  9.0849e-03  3.3661e-03  0:15:52 1729
   272  1.2214e-02  3.5959e-03  1.2081e-02  1.1674e+00  1.2185e-02  9.2428e-03  3.4228e-03  0:12:41 1728
   273  1.2166e-02  3.6042e-03  1.2072e-02  1.1742e+00  1.2137e-02  9.3396e-03  3.4761e-03  0:15:54 1727
   274  1.2063e-02  3.5942e-03  1.2095e-02  1.1826e+00  1.2034e-02  9.4174e-03  3.5162e-03  0:12:43 1726
   275  1.1882e-02  3.5634e-03  1.2062e-02  1.1912e+00  1.1853e-02  9.4936e-03  3.5366e-03  0:15:55 1725

  iter  continuity  x-velocity  y-velocity  z-velocity      energy           k       omega     time/iter
   276  1.1610e-02  3.5165e-03  1.2073e-02  1.1977e+00  1.1581e-02  9.5484e-03  3.5728e-03  0:12:43 1724
   277  1.1296e-02  3.4520e-03  1.2104e-02  1.2052e+00  1.1268e-02  9.5624e-03  3.5713e-03  0:15:55 1723
   278  1.0948e-02  3.3729e-03  1.2141e-02  1.2126e+00  1.0920e-02  9.5947e-03  3.5685e-03  0:12:44 1722
   279  1.0551e-02  3.2819e-03  1.2175e-02  1.2213e+00  1.0524e-02  9.5995e-03  3.5455e-03  0:15:55 1721
   280  1.0088e-02  3.1864e-03  1.2209e-02  1.2286e+00  1.0062e-02  9.5961e-03  3.5004e-03  0:12:43 1720
   281  9.5672e-03  3.0863e-03  1.2246e-02  1.2333e+00  9.5418e-03  9.6081e-03  3.4484e-03  0:15:54 1719
   282  8.9989e-03  2.9862e-03  1.2271e-02  1.2365e+00  8.9744e-03  9.6198e-03  3.4192e-03  0:12:43 1718
   283  8.4307e-03  2.8862e-03  1.2301e-02  1.2369e+00  8.4072e-03  9.6318e-03  3.3864e-03  0:15:53 1717
   284  7.8800e-03  2.7885e-03  1.2344e-02  1.2374e+00  7.8574e-03  9.6257e-03  3.3303e-03  0:12:42 1716
   285  7.3505e-03  2.6970e-03  1.2395e-02  1.2370e+00  7.3291e-03  9.5818e-03  3.2849e-03  0:15:52 1715
   286  6.8427e-03  2.6136e-03  1.2440e-02  1.2378e+00  6.8225e-03  9.4951e-03  3.2362e-03  0:18:24 1714

  iter  continuity  x-velocity  y-velocity  z-velocity      energy           k       omega     time/iter
   287  6.4106e-03  2.5401e-03  1.2493e-02  1.2362e+00  6.3918e-03  9.3917e-03  3.1818e-03  0:14:43 1713
   288  6.0825e-03  2.4790e-03  1.2555e-02  1.2331e+00  6.0652e-03  9.2743e-03  3.1271e-03  0:11:46 1712
   289  5.9113e-03  2.4313e-03  1.2638e-02  1.2272e+00  5.8957e-03  9.1070e-03  3.0709e-03  0:15:07 1711
   290  5.9400e-03  2.3983e-03  1.2743e-02  1.2201e+00  5.9258e-03  8.9621e-03  3.0299e-03  0:12:05 1710
   291  6.1436e-03  2.3821e-03  1.2860e-02  1.2094e+00  6.1306e-03  8.7692e-03  2.9545e-03  0:15:21 1709
   292  6.4804e-03  2.3822e-03  1.2982e-02  1.1952e+00  6.4683e-03  8.5639e-03  2.8809e-03  0:17:58 1708
   293  6.9103e-03  2.3937e-03  1.3119e-02  1.1781e+00  6.8988e-03  8.3281e-03  2.8147e-03  0:14:22 1707
   294  7.4077e-03  2.4110e-03  1.3274e-02  1.1634e+00  7.3967e-03  8.0859e-03  2.7663e-03  0:17:10 1706
   295  7.9815e-03  2.4253e-03  1.3447e-02  1.1496e+00  7.9709e-03  7.8656e-03  2.7342e-03  0:13:44 1705
   296  8.3050e-03  2.4478e-03  1.3617e-02  1.1333e+00  8.2937e-03  7.6443e-03  2.7112e-03  0:16:40 1704
   297  8.6504e-03  2.4962e-03  1.3800e-02  1.1165e+00  8.6387e-03  7.4668e-03  2.6948e-03  0:13:19 1703

  iter  continuity  x-velocity  y-velocity  z-velocity      energy           k       omega     time/iter
   298  9.0026e-03  2.5478e-03  1.3981e-02  1.1004e+00  8.9906e-03  7.2765e-03  2.6796e-03  0:16:19 1702
   299  9.3806e-03  2.5952e-03  1.4161e-02  1.0886e+00  9.3685e-03  7.1061e-03  2.6660e-03  0:13:03 1701
   300  9.6334e-03  2.6295e-03  1.4336e-02  1.0827e+00  9.6211e-03  6.9854e-03  2.6633e-03  0:10:26 1700
   301  9.8228e-03  2.6510e-03  1.4488e-02  1.0901e+00  9.8102e-03  6.8327e-03  2.6624e-03  0:14:00 1699
   302  9.9812e-03  2.6694e-03  1.4607e-02  1.0897e+00  9.9683e-03  6.6798e-03  2.6658e-03  0:16:51 1698
   303  9.9897e-03  2.6896e-03  1.4700e-02  1.1025e+00  9.9761e-03  6.5704e-03  2.6609e-03  0:13:29 1697
   304  1.0086e-02  2.7065e-03  1.4762e-02  1.1236e+00  1.0072e-02  6.4651e-03  2.6735e-03  0:10:47 1696
   305  1.0244e-02  2.7158e-03  1.4786e-02  1.1434e+00  1.0231e-02  6.3660e-03  2.6991e-03  0:14:16 1695
   306  1.0256e-02  2.7177e-03  1.4763e-02  1.1409e+00  1.0243e-02  6.2869e-03  2.7293e-03  0:11:24 1694
   307  1.0186e-02  2.7108e-03  1.4698e-02  1.1308e+00  1.0172e-02  6.1919e-03  2.7607e-03  0:14:46 1693
   308  1.0118e-02  2.6945e-03  1.4595e-02  1.1231e+00  1.0104e-02  6.1113e-03  2.7926e-03  0:11:48 1692

  iter  continuity  x-velocity  y-velocity  z-velocity      energy           k       omega     time/iter
   309  1.0226e-02  2.6657e-03  1.4457e-02  1.1157e+00  1.0213e-02  6.0188e-03  2.8302e-03  0:15:04 1691
   310  1.0364e-02  2.6224e-03  1.4282e-02  1.1093e+00  1.0353e-02  5.9395e-03  2.8719e-03  0:12:03 1690
   311  1.0503e-02  2.5691e-03  1.4077e-02  1.1064e+00  1.0494e-02  5.9239e-03  2.9065e-03  0:15:16 1689
   312  1.0655e-02  2.5110e-03  1.3841e-02  1.1072e+00  1.0647e-02  5.9321e-03  2.9332e-03  0:12:12 1688
   313  1.0793e-02  2.4514e-03  1.3571e-02  1.1004e+00  1.0786e-02  5.9534e-03  2.9415e-03  0:15:23 1687
   314  1.0883e-02  2.3963e-03  1.3285e-02  1.1002e+00  1.0878e-02  5.9670e-03  2.9567e-03  0:12:18 1686
   315  1.0903e-02  2.3479e-03  1.2871e-02  1.1039e+00  1.0899e-02  5.9927e-03  2.9735e-03  0:15:27 1685
   316  1.0822e-02  2.2989e-03  1.2485e-02  1.1144e+00  1.0819e-02  6.0209e-03  2.9811e-03  0:12:21 1684
   317  1.0642e-02  2.2586e-03  1.2186e-02  1.1316e+00  1.0640e-02  6.0334e-03  2.9906e-03  0:15:29 1683
   318  1.0399e-02  2.2359e-03  1.1915e-02  1.1556e+00  1.0396e-02  6.0945e-03  2.9891e-03  0:12:23 1682
   319  1.0082e-02  2.2260e-03  1.1663e-02  1.1856e+00  1.0079e-02  6.1602e-03  2.9956e-03  0:15:30 1681

  iter  continuity  x-velocity  y-velocity  z-velocity      energy           k       omega     time/iter
   320  9.7040e-03  2.2261e-03  1.1437e-02  1.2152e+00  9.7005e-03  6.1961e-03  3.0048e-03  0:12:24 1680
   321  9.2742e-03  2.2349e-03  1.1243e-02  1.2434e+00  9.2699e-03  6.2433e-03  3.0104e-03  0:15:30 1679
   322  8.8091e-03  2.2498e-03  1.1088e-02  1.2737e+00  8.8037e-03  6.2799e-03  3.0122e-03  0:12:24 1678
   323  8.3305e-03  2.2684e-03  1.0974e-02  1.3095e+00  8.3239e-03  6.2582e-03  3.0080e-03  0:15:30 1677
   324  7.8585e-03  2.2891e-03  1.0897e-02  1.3475e+00  7.8505e-03  6.2717e-03  3.0136e-03  0:12:24 1676
   325  7.4114e-03  2.3147e-03  1.0862e-02  1.3960e+00  7.4022e-03  6.2718e-03  3.0044e-03  0:15:30 1675
   326  6.9931e-03  2.3435e-03  1.0873e-02  1.4516e+00  6.9828e-03  6.2912e-03  3.0049e-03  0:12:23 1674
   327  6.6221e-03  2.3759e-03  1.0928e-02  1.5033e+00  6.6109e-03  6.3470e-03  2.9986e-03  0:09:54 1673
   328  6.2918e-03  2.4047e-03  1.1024e-02  1.5459e+00  6.2799e-03  6.4053e-03  3.0025e-03  0:13:29 1672
   329  6.0025e-03  2.4297e-03  1.1158e-02  1.5898e+00  5.9899e-03  6.4864e-03  2.9965e-03  0:10:47 1671
   330  5.7668e-03  2.4504e-03  1.1323e-02  1.6358e+00  5.7538e-03  6.5632e-03  2.9937e-03  0:14:11 1670

  iter  continuity  x-velocity  y-velocity  z-velocity      energy           k       omega     time/iter
   331  5.5731e-03  2.4680e-03  1.1520e-02  1.6710e+00  5.5598e-03  6.6784e-03  2.9781e-03  0:11:21 1669
   332  5.4098e-03  2.4852e-03  1.1741e-02  1.7019e+00  5.3963e-03  6.7699e-03  2.9752e-03  0:14:38 1668
   333  5.2688e-03  2.5032e-03  1.1977e-02  1.7261e+00  5.2550e-03  6.8656e-03  2.9684e-03  0:11:42 1667
   334  5.1457e-03  2.5219e-03  1.2221e-02  1.7647e+00  5.1316e-03  6.9614e-03  2.9495e-03  0:14:54 1666
   335  5.0343e-03  2.5400e-03  1.2467e-02  1.7975e+00  5.0198e-03  7.0735e-03  2.9364e-03  0:17:28 1665
   336  4.9324e-03  2.5582e-03  1.2708e-02  1.8091e+00  4.9174e-03  7.1531e-03  2.9233e-03  0:13:58 1664
   337  4.8387e-03  2.5765e-03  1.2941e-02  1.8051e+00  4.8231e-03  7.2029e-03  2.9091e-03  0:16:43 1663
   338  4.7531e-03  2.5944e-03  1.3164e-02  1.7689e+00  4.7367e-03  7.2527e-03  2.8918e-03  0:13:22 1662
   339  4.6698e-03  2.6104e-03  1.3375e-02  1.7564e+00  4.6525e-03  7.3031e-03  2.8766e-03  0:10:41 1661
   340  4.5951e-03  2.6243e-03  1.3575e-02  1.7662e+00  4.5770e-03  7.3314e-03  2.8517e-03  0:14:04 1660
   341  4.5344e-03  2.6351e-03  1.3758e-02  1.8098e+00  4.5156e-03  7.3895e-03  2.8202e-03  0:11:15 1659

  iter  continuity  x-velocity  y-velocity  z-velocity      energy           k       omega     time/iter
   342  4.4853e-03  2.6424e-03  1.3925e-02  1.8941e+00  4.4657e-03  7.4162e-03  2.8162e-03  0:14:31 1658
   343  4.4469e-03  2.6465e-03  1.4076e-02  1.9785e+00  4.4267e-03  7.4353e-03  2.8061e-03  0:11:37 1657
   344  4.4237e-03  2.6471e-03  1.4215e-02  2.0682e+00  4.4031e-03  7.4727e-03  2.7934e-03  0:14:48 1656
   345  4.4135e-03  2.6459e-03  1.4341e-02  2.1834e+00  4.3926e-03  7.6247e-03  2.7762e-03  0:17:21 1655
   346  4.4146e-03  2.6435e-03  1.4451e-02  2.3105e+00  4.3935e-03  7.8023e-03  2.7622e-03  0:13:52 1654
   347  4.4250e-03  2.6446e-03  1.4546e-02  2.4261e+00  4.4039e-03  7.9659e-03  2.7553e-03  0:16:36 1653
   348  4.4406e-03  2.6463e-03  1.4628e-02  2.5309e+00  4.4194e-03  8.0849e-03  2.7480e-03  0:13:16 1652
   349  4.4553e-03  2.6456e-03  1.4701e-02  2.6301e+00  4.4342e-03  8.1945e-03  2.7438e-03  0:16:07 1651
   350  4.4718e-03  2.6435e-03  1.4765e-02  2.7184e+00  4.4508e-03  8.2500e-03  2.7477e-03  0:12:53 1650
   351  4.4902e-03  2.6398e-03  1.4818e-02  2.7895e+00  4.4693e-03  8.3087e-03  2.7419e-03  0:15:48 1649
   352  4.5102e-03  2.6349e-03  1.4862e-02  2.8421e+00  4.4894e-03  8.4205e-03  2.7459e-03  0:12:38 1648

  iter  continuity  x-velocity  y-velocity  z-velocity      energy           k       omega     time/iter
   353  4.5362e-03  2.6291e-03  1.4896e-02  2.8856e+00  4.5156e-03  8.5432e-03  2.7289e-03  0:15:35 1647
   354  4.5766e-03  2.6210e-03  1.4922e-02  2.9262e+00  4.5562e-03  8.6497e-03  2.7247e-03  0:12:28 1646
   355  4.6306e-03  2.6128e-03  1.4939e-02  2.9716e+00  4.6104e-03  8.7416e-03  2.7184e-03  0:15:27 1645
   356  4.6936e-03  2.6046e-03  1.4948e-02  3.0311e+00  4.6737e-03  8.7664e-03  2.7099e-03  0:12:21 1644
   357  4.7622e-03  2.5961e-03  1.4948e-02  3.1043e+00  4.7426e-03  8.7257e-03  2.7005e-03  0:15:21 1643
   358  4.8348e-03  2.5875e-03  1.4941e-02  3.1946e+00  4.8156e-03  8.6521e-03  2.6901e-03  0:12:16 1642
   359  4.9175e-03  2.5780e-03  1.4930e-02  3.3042e+00  4.8987e-03  8.5772e-03  2.6744e-03  0:15:17 1641
   360  5.0216e-03  2.5676e-03  1.4915e-02  3.4291e+00  5.0034e-03  8.5549e-03  2.6629e-03  0:12:13 1640
   361  5.1324e-03  2.5557e-03  1.4898e-02  3.5709e+00  5.1149e-03  8.4815e-03  2.6459e-03  0:15:14 1639
   362  5.2403e-03  2.5421e-03  1.4875e-02  3.7089e+00  5.2237e-03  8.3919e-03  2.6282e-03  0:12:11 1638
   363  5.3488e-03  2.5265e-03  1.4852e-02  3.8526e+00  5.3331e-03  8.3321e-03  2.6173e-03  0:15:12 1637

  iter  continuity  x-velocity  y-velocity  z-velocity      energy           k       omega     time/iter
   364  5.4459e-03  2.5085e-03  1.4830e-02  3.9786e+00  5.4311e-03  8.2446e-03  2.6012e-03  0:12:09 1636
   365  5.5297e-03  2.4889e-03  1.4808e-02  4.0704e+00  5.5159e-03  8.1403e-03  2.5804e-03  0:15:10 1635
   366  5.5935e-03  2.4679e-03  1.4786e-02  4.1171e+00  5.5806e-03  8.0442e-03  2.5744e-03  0:12:07 1634
   367  5.6315e-03  2.4457e-03  1.4765e-02  4.1233e+00  5.6195e-03  7.9467e-03  2.5675e-03  0:09:42 1633
   368  5.6437e-03  2.4224e-03  1.4744e-02  4.1090e+00  5.6325e-03  7.8563e-03  2.5520e-03  0:13:11 1632
   369  5.6358e-03  2.3986e-03  1.4724e-02  4.0750e+00  5.6254e-03  7.7738e-03  2.5424e-03  0:10:33 1631
   370  5.5951e-03  2.3740e-03  1.4706e-02  4.0215e+00  5.5855e-03  7.7016e-03  2.5421e-03  0:13:52 1630
   371  5.5148e-03  2.3504e-03  1.4688e-02  3.9673e+00  5.5059e-03  7.5893e-03  2.5344e-03  0:11:05 1629
   372  5.3977e-03  2.3292e-03  1.4670e-02  3.9022e+00  5.3894e-03  7.4354e-03  2.5377e-03  0:14:17 1628
   373  5.2512e-03  2.3082e-03  1.4656e-02  3.8255e+00  5.2435e-03  7.2756e-03  2.5366e-03  0:11:25 1627
   374  5.0813e-03  2.2861e-03  1.4647e-02  3.7211e+00  5.0743e-03  7.1070e-03  2.5293e-03  0:14:33 1626

  iter  continuity  x-velocity  y-velocity  z-velocity      energy           k       omega     time/iter
   375  4.8872e-03  2.2655e-03  1.4638e-02  3.5980e+00  4.8806e-03  6.9675e-03  2.5255e-03  0:11:38 1625
   376  4.6728e-03  2.2460e-03  1.4631e-02  3.4804e+00  4.6668e-03  6.8361e-03  2.5206e-03  0:14:43 1624
   377  4.4447e-03  2.2269e-03  1.4625e-02  3.3598e+00  4.4393e-03  6.6957e-03  2.5196e-03  0:11:46 1623
   378  4.2072e-03  2.2086e-03  1.4625e-02  3.2487e+00  4.2023e-03  6.5821e-03  2.5221e-03  0:14:49 1622
   379  3.9650e-03  2.1909e-03  1.4628e-02  3.1433e+00  3.9608e-03  6.4740e-03  2.5235e-03  0:11:51 1621
   380  3.7303e-03  2.1734e-03  1.4634e-02  3.0712e+00  3.7267e-03  6.3956e-03  2.5190e-03  0:14:52 1620
   381  3.5170e-03  2.1554e-03  1.4644e-02  3.0372e+00  3.5140e-03  6.3562e-03  2.5120e-03  0:11:53 1619
   382  3.3331e-03  2.1370e-03  1.4656e-02  3.0167e+00  3.3308e-03  6.3450e-03  2.5120e-03  0:14:54 1618
   383  3.1849e-03  2.1182e-03  1.4670e-02  2.9946e+00  3.1831e-03  6.3205e-03  2.5156e-03  0:11:55 1617
   384  3.0732e-03  2.0992e-03  1.4688e-02  2.9925e+00  3.0717e-03  6.3251e-03  2.5174e-03  0:14:55 1616
   385  3.0192e-03  2.0814e-03  1.4709e-02  2.9905e+00  3.0179e-03  6.2976e-03  2.5125e-03  0:11:55 1615

  iter  continuity  x-velocity  y-velocity  z-velocity      energy           k       omega     time/iter
   386  3.0004e-03  2.0627e-03  1.4731e-02  2.9928e+00  2.9993e-03  6.2749e-03  2.5078e-03  0:14:55 1614
   387  3.0278e-03  2.0440e-03  1.4757e-02  2.9801e+00  3.0267e-03  6.3088e-03  2.5041e-03  0:11:55 1613
   388  3.0975e-03  2.0259e-03  1.4787e-02  2.9751e+00  3.0962e-03  6.3447e-03  2.5006e-03  0:14:54 1612
   389  3.2072e-03  2.0090e-03  1.4820e-02  2.9658e+00  3.2055e-03  6.3703e-03  2.5015e-03  0:11:55 1611
   390  3.3504e-03  1.9941e-03  1.4859e-02  2.9731e+00  3.3481e-03  6.3911e-03  2.5070e-03  0:14:54 1610
   391  3.5188e-03  1.9815e-03  1.4902e-02  2.9705e+00  3.5160e-03  6.4778e-03  2.5040e-03  0:11:54 1609
   392  3.7140e-03  1.9712e-03  1.4949e-02  2.9691e+00  3.7106e-03  6.5540e-03  2.5023e-03  0:14:53 1608
   393  3.9124e-03  1.9628e-03  1.5002e-02  2.9766e+00  3.9084e-03  6.6037e-03  2.4993e-03  0:11:54 1607
   394  4.1110e-03  1.9558e-03  1.5058e-02  2.9446e+00  4.1064e-03  6.6452e-03  2.4914e-03  0:14:52 1606
   395  4.3023e-03  1.9515e-03  1.5116e-02  2.9115e+00  4.2972e-03  6.6884e-03  2.4851e-03  0:11:53 1605
   396  4.4848e-03  1.9517e-03  1.5177e-02  2.8838e+00  4.4792e-03  6.7427e-03  2.4738e-03  0:14:51 1604

  iter  continuity  x-velocity  y-velocity  z-velocity      energy           k       omega     time/iter
   397  4.6637e-03  1.9567e-03  1.5240e-02  2.8596e+00  4.6577e-03  6.7669e-03  2.4605e-03  0:11:52 1603
   398  4.8364e-03  1.9669e-03  1.5306e-02  2.8572e+00  4.8299e-03  6.8018e-03  2.4586e-03  0:14:50 1602
   399  4.9970e-03  1.9804e-03  1.5372e-02  2.8493e+00  4.9901e-03  6.8528e-03  2.4574e-03  0:11:51 1601
   400  5.1411e-03  1.9967e-03  1.5435e-02  2.8423e+00  5.1336e-03  6.9160e-03  2.4488e-03  0:14:49 1600
   401  5.2768e-03  2.0155e-03  1.5498e-02  2.8394e+00  5.2689e-03  6.9886e-03  2.4379e-03  0:11:51 1599
   402  5.3941e-03  2.0370e-03  1.5565e-02  2.8364e+00  5.3856e-03  7.0595e-03  2.4389e-03  0:14:48 1598
   403  5.5046e-03  2.0603e-03  1.5635e-02  2.8201e+00  5.4957e-03  7.1201e-03  2.4405e-03  0:11:50 1597
   404  5.6010e-03  2.0844e-03  1.5704e-02  2.8080e+00  5.5916e-03  7.1752e-03  2.4379e-03  0:14:47 1596
   405  5.6873e-03  2.1092e-03  1.5774e-02  2.7976e+00  5.6774e-03  7.2513e-03  2.4329e-03  0:11:49 1595
   406  5.7573e-03  2.1346e-03  1.5846e-02  2.7882e+00  5.7469e-03  7.3542e-03  2.4338e-03  0:14:46 1594
   407  5.8136e-03  2.1593e-03  1.5918e-02  2.7868e+00  5.8028e-03  7.4481e-03  2.4296e-03  0:11:48 1593

  iter  continuity  x-velocity  y-velocity  z-velocity      energy           k       omega     time/iter
   408  5.8595e-03  2.1824e-03  1.5989e-02  2.7853e+00  5.8481e-03  7.5289e-03  2.4348e-03  0:14:44 1592
   409  5.8690e-03  2.2037e-03  1.6058e-02  2.8051e+00  5.8570e-03  7.5802e-03  2.4399e-03  0:11:47 1591
   410  5.8513e-03  2.2228e-03  1.6124e-02  2.8378e+00  5.8387e-03  7.6296e-03  2.4502e-03  0:14:43 1590
   411  5.8471e-03  2.2389e-03  1.6187e-02  2.9143e+00  5.8339e-03  7.7213e-03  2.4579e-03  0:11:46 1589
   412  5.8243e-03  2.2529e-03  1.6246e-02  2.9887e+00  5.8104e-03  7.8750e-03  2.4639e-03  0:14:42 1588
   413  5.7927e-03  2.2651e-03  1.6302e-02  3.0522e+00  5.7782e-03  8.0369e-03  2.4708e-03  0:11:45 1587
   414  5.7650e-03  2.2752e-03  1.6353e-02  3.1056e+00  5.7499e-03  8.1556e-03  2.4815e-03  0:14:41 1586
   415  5.7297e-03  2.2830e-03  1.6401e-02  3.1523e+00  5.7139e-03  8.2250e-03  2.4834e-03  0:11:44 1585
   416  5.6953e-03  2.2890e-03  1.6446e-02  3.1961e+00  5.6789e-03  8.2509e-03  2.4898e-03  0:14:40 1584
   417  5.6600e-03  2.2934e-03  1.6487e-02  3.2260e+00  5.6430e-03  8.2436e-03  2.4985e-03  0:11:44 1583
   418  5.6285e-03  2.2963e-03  1.6525e-02  3.2566e+00  5.6111e-03  8.2302e-03  2.5093e-03  0:14:39 1582

  iter  continuity  x-velocity  y-velocity  z-velocity      energy           k       omega     time/iter
   419  5.5997e-03  2.2976e-03  1.6560e-02  3.2773e+00  5.5817e-03  8.2562e-03  2.5158e-03  0:11:43 1581
   420  5.5693e-03  2.2975e-03  1.6592e-02  3.2692e+00  5.5510e-03  8.2899e-03  2.5155e-03  0:14:38 1580
   421  5.5395e-03  2.2969e-03  1.6622e-02  3.2768e+00  5.5207e-03  8.2944e-03  2.5183e-03  0:11:42 1579
   422  5.5126e-03  2.2957e-03  1.6649e-02  3.2746e+00  5.4935e-03  8.2879e-03  2.5205e-03  0:14:37 1578
   423  5.4867e-03  2.2943e-03  1.6674e-02  3.2715e+00  5.4673e-03  8.3072e-03  2.5202e-03  0:11:41 1577
   424  5.4619e-03  2.2936e-03  1.6697e-02  3.2638e+00  5.4423e-03  8.3108e-03  2.5229e-03  0:14:36 1576
   425  5.4301e-03  2.2932e-03  1.6719e-02  3.2555e+00  5.4103e-03  8.2736e-03  2.5241e-03  0:11:40 1575
   426  5.3925e-03  2.2919e-03  1.6738e-02  3.2441e+00  5.3726e-03  8.2047e-03  2.5164e-03  0:14:34 1574
   427  5.3531e-03  2.2918e-03  1.6754e-02  3.2554e+00  5.3331e-03  8.1169e-03  2.5143e-03  0:11:39 1573
   428  5.3055e-03  2.2934e-03  1.6772e-02  3.2525e+00  5.2855e-03  7.9648e-03  2.5099e-03  0:14:33 1572
   429  5.2480e-03  2.2964e-03  1.6788e-02  3.2343e+00  5.2281e-03  7.8092e-03  2.5038e-03  0:11:38 1571

  iter  continuity  x-velocity  y-velocity  z-velocity      energy           k       omega     time/iter
   430  5.1837e-03  2.3011e-03  1.6805e-02  3.1962e+00  5.1638e-03  7.6264e-03  2.5036e-03  0:14:32 1570
   431  5.1153e-03  2.3073e-03  1.6825e-02  3.1666e+00  5.0955e-03  7.4538e-03  2.4966e-03  0:11:37 1569
   432  5.0428e-03  2.3148e-03  1.6848e-02  3.1206e+00  5.0233e-03  7.3648e-03  2.4942e-03  0:14:31 1568
   433  4.9607e-03  2.3237e-03  1.6874e-02  3.0735e+00  4.9414e-03  7.2970e-03  2.4974e-03  0:11:36 1567
   434  4.8745e-03  2.3339e-03  1.6901e-02  3.0239e+00  4.8555e-03  7.2372e-03  2.4862e-03  0:14:30 1566
   435  4.7843e-03  2.3452e-03  1.6931e-02  2.9766e+00  4.7655e-03  7.1615e-03  2.4787e-03  0:11:36 1565
   436  4.6898e-03  2.3578e-03  1.6965e-02  2.9206e+00  4.6712e-03  7.0427e-03  2.4710e-03  0:14:29 1564
   437  4.5944e-03  2.3697e-03  1.7003e-02  2.8752e+00  4.5760e-03  6.8896e-03  2.4595e-03  0:11:35 1563
   438  4.4983e-03  2.3827e-03  1.7046e-02  2.8206e+00  4.4802e-03  6.7179e-03  2.4462e-03  0:14:28 1562
   439  4.4024e-03  2.3966e-03  1.7093e-02  2.7764e+00  4.3844e-03  6.5350e-03  2.4425e-03  0:16:46 1561
   440  4.3077e-03  2.4115e-03  1.7146e-02  2.7222e+00  4.2899e-03  6.3651e-03  2.4338e-03  0:13:24 1560

  iter  continuity  x-velocity  y-velocity  z-velocity      energy           k       omega     time/iter
   441  4.2183e-03  2.4276e-03  1.7205e-02  2.6644e+00  4.2007e-03  6.2505e-03  2.4244e-03  0:15:55 1559
   442  4.1325e-03  2.4446e-03  1.7270e-02  2.6208e+00  4.1151e-03  6.1320e-03  2.4165e-03  0:12:43 1558
   443  4.0507e-03  2.4624e-03  1.7342e-02  2.5672e+00  4.0336e-03  6.0302e-03  2.4144e-03  0:15:22 1557
   444  3.9803e-03  2.4820e-03  1.7420e-02  2.5340e+00  3.9635e-03  5.9712e-03  2.4029e-03  0:12:17 1556
   445  3.8955e-03  2.5020e-03  1.7504e-02  2.4928e+00  3.8790e-03  5.9166e-03  2.3952e-03  0:15:00 1555
   446  3.8059e-03  2.5229e-03  1.7593e-02  2.4691e+00  3.7897e-03  5.8623e-03  2.3874e-03  0:12:00 1554
   447  3.7190e-03  2.5436e-03  1.7689e-02  2.4490e+00  3.7032e-03  5.8006e-03  2.3832e-03  0:14:46 1553
   448  3.6390e-03  2.5625e-03  1.7791e-02  2.4177e+00  3.6238e-03  5.7297e-03  2.3774e-03  0:11:48 1552
   449  3.5558e-03  2.5816e-03  1.7898e-02  2.3973e+00  3.5411e-03  5.6755e-03  2.3706e-03  0:14:36 1551
   450  3.4661e-03  2.5997e-03  1.8009e-02  2.3737e+00  3.4520e-03  5.6443e-03  2.3647e-03  0:11:41 1550
   451  3.3676e-03  2.6174e-03  1.8123e-02  2.3467e+00  3.3541e-03  5.6260e-03  2.3595e-03  0:14:30 1549

  iter  continuity  x-velocity  y-velocity  z-velocity      energy           k       omega     time/iter
   452  3.2668e-03  2.6341e-03  1.8240e-02  2.3188e+00  3.2539e-03  5.6146e-03  2.3552e-03  0:11:36 1548
   453  3.1677e-03  2.6504e-03  1.8361e-02  2.2975e+00  3.1553e-03  5.5937e-03  2.3549e-03  0:14:25 1547
   454  3.0715e-03  2.6655e-03  1.8480e-02  2.2627e+00  3.0598e-03  5.5721e-03  2.3508e-03  0:11:32 1546
   455  2.9744e-03  2.6792e-03  1.8593e-02  2.2375e+00  2.9633e-03  5.5771e-03  2.3476e-03  0:14:22 1545
   456  2.8850e-03  2.6919e-03  1.8696e-02  2.2042e+00  2.8746e-03  5.5866e-03  2.3454e-03  0:11:29 1544
   457  2.8035e-03  2.7034e-03  1.8799e-02  2.1978e+00  2.7937e-03  5.5875e-03  2.3448e-03  0:14:20 1543
   458  2.7335e-03  2.7140e-03  1.8905e-02  2.1724e+00  2.7243e-03  5.5756e-03  2.3388e-03  0:11:27 1542
   459  2.6759e-03  2.7227e-03  1.9011e-02  2.1474e+00  2.6672e-03  5.5808e-03  2.3360e-03  0:14:18 1541
   460  2.6314e-03  2.7298e-03  1.9115e-02  2.1153e+00  2.6232e-03  5.6049e-03  2.3335e-03  0:11:26 1540
   461  2.6001e-03  2.7347e-03  1.9214e-02  2.1005e+00  2.5923e-03  5.6263e-03  2.3311e-03  0:09:08 1539
   462  2.5836e-03  2.7369e-03  1.9307e-02  2.0712e+00  2.5763e-03  5.6359e-03  2.3286e-03  0:12:26 1538

  iter  continuity  x-velocity  y-velocity  z-velocity      energy           k       omega     time/iter
   463  2.5852e-03  2.7367e-03  1.9394e-02  2.0539e+00  2.5782e-03  5.6349e-03  2.3225e-03  0:09:56 1537
   464  2.6032e-03  2.7336e-03  1.9473e-02  2.0326e+00  2.5965e-03  5.6320e-03  2.3206e-03  0:13:04 1536
   465  2.6448e-03  2.7277e-03  1.9544e-02  2.0300e+00  2.6382e-03  5.6465e-03  2.3120e-03  0:10:27 1535
   466  2.7039e-03  2.7188e-03  1.9607e-02  2.0192e+00  2.6974e-03  5.6622e-03  2.3102e-03  0:13:28 1534
   467  2.7727e-03  2.7079e-03  1.9661e-02  2.0168e+00  2.7663e-03  5.6800e-03  2.3069e-03  0:10:46 1533
   468  2.8456e-03  2.6954e-03  1.9706e-02  2.0152e+00  2.8394e-03  5.7073e-03  2.3023e-03  0:13:43 1532
   469  2.9362e-03  2.6814e-03  1.9743e-02  2.0218e+00  2.9302e-03  5.7328e-03  2.2984e-03  0:10:58 1531
   470  3.0428e-03  2.6658e-03  1.9772e-02  2.0333e+00  3.0370e-03  5.7707e-03  2.2955e-03  0:13:52 1530
   471  3.1657e-03  2.6491e-03  1.9794e-02  2.0477e+00  3.1601e-03  5.8228e-03  2.2954e-03  0:11:05 1529
   472  3.3015e-03  2.6311e-03  1.9809e-02  2.0728e+00  3.2961e-03  5.8669e-03  2.2918e-03  0:08:52 1528
   473  3.4424e-03  2.6120e-03  1.9817e-02  2.0972e+00  3.4374e-03  5.8972e-03  2.2881e-03  0:12:10 1527

  iter  continuity  x-velocity  y-velocity  z-velocity      energy           k       omega     time/iter
   474  3.5927e-03  2.5919e-03  1.9818e-02  2.1197e+00  3.5880e-03  5.9111e-03  2.2824e-03  0:09:44 1526
   475  3.7509e-03  2.5715e-03  1.9813e-02  2.1430e+00  3.7465e-03  5.9404e-03  2.2815e-03  0:12:52 1525
   476  3.9265e-03  2.5503e-03  1.9801e-02  2.1719e+00  3.9224e-03  5.9673e-03  2.2772e-03  0:10:17 1524
   477  4.1252e-03  2.5289e-03  1.9783e-02  2.1837e+00  4.1214e-03  5.9881e-03  2.2732e-03  0:13:18 1523
   478  4.3475e-03  2.5083e-03  1.9759e-02  2.2112e+00  4.3442e-03  6.0008e-03  2.2648e-03  0:10:38 1522
   479  4.6162e-03  2.4880e-03  1.9731e-02  2.1789e+00  4.6135e-03  6.0222e-03  2.2602e-03  0:13:34 1521
   480  4.9592e-03  2.4676e-03  1.9697e-02  2.2168e+00  4.9574e-03  6.0367e-03  2.2492e-03  0:10:51 1520
   481  5.2920e-03  2.4486e-03  1.9657e-02  2.2007e+00  5.2910e-03  6.0518e-03  2.2393e-03  0:13:44 1519
   482  5.6151e-03  2.4308e-03  1.9610e-02  2.2650e+00  5.6150e-03  6.0406e-03  2.2285e-03  0:10:59 1518
   483  5.9488e-03  2.4140e-03  1.9558e-02  2.2572e+00  5.9495e-03  6.0081e-03  2.2191e-03  0:13:50 1517
   484  6.3241e-03  2.3975e-03  1.9502e-02  2.3171e+00  6.3258e-03  5.9647e-03  2.2023e-03  0:11:04 1516

  iter  continuity  x-velocity  y-velocity  z-velocity      energy           k       omega     time/iter
   485  6.6939e-03  2.3831e-03  1.9439e-02  2.3443e+00  6.6967e-03  5.8959e-03  2.1864e-03  0:13:54 1515
   486  6.9694e-03  2.3687e-03  1.9371e-02  2.3120e+00  6.9730e-03  5.8196e-03  2.1727e-03  0:11:06 1514
   487  7.1321e-03  2.3566e-03  1.9296e-02  2.4072e+00  7.1362e-03  5.7565e-03  2.1566e-03  0:13:55 1513
   488  7.2419e-03  2.3435e-03  1.9216e-02  2.3904e+00  7.2463e-03  5.6772e-03  2.1398e-03  0:11:08 1512
   489  7.2849e-03  2.3318e-03  1.9131e-02  2.4164e+00  7.2895e-03  5.5872e-03  2.1151e-03  0:13:56 1511
   490  7.2794e-03  2.3188e-03  1.9038e-02  2.4677e+00  7.2841e-03  5.5012e-03  2.0974e-03  0:11:08 1510
   491  7.2401e-03  2.3084e-03  1.8938e-02  2.4638e+00  7.2447e-03  5.4275e-03  2.0793e-03  0:13:56 1509
   492  7.1713e-03  2.2994e-03  1.8834e-02  2.5731e+00  7.1758e-03  5.3655e-03  2.0665e-03  0:11:09 1508
   493  7.0827e-03  2.2917e-03  1.8720e-02  2.5631e+00  7.0871e-03  5.3005e-03  2.0479e-03  0:13:56 1507
   494  6.9702e-03  2.2831e-03  1.8603e-02  2.6177e+00  6.9744e-03  5.2227e-03  2.0320e-03  0:11:08 1506
   495  6.8309e-03  2.2758e-03  1.8482e-02  2.6924e+00  6.8349e-03  5.1388e-03  2.0134e-03  0:13:55 1505

  iter  continuity  x-velocity  y-velocity  z-velocity      energy           k       omega     time/iter
   496  6.6611e-03  2.2697e-03  1.8355e-02  2.7691e+00  6.6647e-03  5.0446e-03  2.0011e-03  0:11:08 1504
   497  6.4813e-03  2.2641e-03  1.8227e-02  2.8200e+00  6.4845e-03  4.9446e-03  1.9831e-03  0:13:54 1503
   498  6.2946e-03  2.2600e-03  1.8093e-02  2.8715e+00  6.2973e-03  4.8579e-03  1.9669e-03  0:11:07 1502
   499  6.1017e-03  2.2564e-03  1.7955e-02  2.9883e+00  6.1038e-03  4.7725e-03  1.9519e-03  0:13:54 1501
   500  5.8975e-03  2.2543e-03  1.7817e-02  3.1659e+00  5.8989e-03  4.7019e-03  1.9402e-03  0:11:06 1500
   501  5.6821e-03  2.2537e-03  1.7664e-02  3.2326e+00  5.6827e-03  4.6450e-03  1.9302e-03  0:13:53 1499
   502  5.4604e-03  2.2544e-03  1.7504e-02  3.3720e+00  5.4600e-03  4.5880e-03  1.9150e-03  0:11:06 1498
   503  5.2452e-03  2.2556e-03  1.7347e-02  3.4663e+00  5.2437e-03  4.5360e-03  1.9009e-03  0:13:52 1497
   504  5.0339e-03  2.2554e-03  1.7197e-02  3.5300e+00  5.0312e-03  4.4920e-03  1.8887e-03  0:11:05 1496
   505  4.8291e-03  2.2558e-03  1.7060e-02  3.5787e+00  4.8251e-03  4.4485e-03  1.8774e-03  0:13:50 1495
   506  4.6317e-03  2.2559e-03  1.6933e-02  3.5712e+00  4.6262e-03  4.4101e-03  1.8693e-03  0:11:04 1494

  iter  continuity  x-velocity  y-velocity  z-velocity      energy           k       omega     time/iter
   507  4.4477e-03  2.2572e-03  1.6820e-02  3.5703e+00  4.4407e-03  4.3659e-03  1.8583e-03  0:13:49 1493
   508  4.2856e-03  2.2588e-03  1.6722e-02  3.4276e+00  4.2771e-03  4.3187e-03  1.8511e-03  0:11:03 1492
   509  4.1489e-03  2.2605e-03  1.6636e-02  3.2367e+00  4.1390e-03  4.2837e-03  1.8382e-03  0:13:48 1491
   510  4.0304e-03  2.2616e-03  1.6559e-02  3.0736e+00  4.0190e-03  4.2593e-03  1.8273e-03  0:11:02 1490
   511  3.9613e-03  2.2632e-03  1.6490e-02  2.9903e+00  3.9488e-03  4.2338e-03  1.8239e-03  0:13:47 1489
   512  3.9503e-03  2.2649e-03  1.6417e-02  2.9475e+00  3.9370e-03  4.2016e-03  1.8193e-03  0:11:01 1488
   513  4.0053e-03  2.2654e-03  1.6346e-02  2.9232e+00  3.9919e-03  4.1671e-03  1.8154e-03  0:13:46 1487
   514  4.1358e-03  2.2647e-03  1.6285e-02  2.9229e+00  4.1228e-03  4.1342e-03  1.8116e-03  0:11:00 1486
   515  4.3483e-03  2.2627e-03  1.6244e-02  2.9084e+00  4.3362e-03  4.1251e-03  1.8032e-03  0:13:45 1485
   516  4.6455e-03  2.2607e-03  1.6212e-02  2.9316e+00  4.6349e-03  4.1444e-03  1.7995e-03  0:11:00 1484
   517  5.0267e-03  2.2585e-03  1.6187e-02  2.9526e+00  5.0178e-03  4.1527e-03  1.7974e-03  0:13:44 1483

  iter  continuity  x-velocity  y-velocity  z-velocity      energy           k       omega     time/iter
   518  5.4890e-03  2.2538e-03  1.6170e-02  2.9656e+00  5.4822e-03  4.1516e-03  1.7943e-03  0:10:59 1482
   519  6.0339e-03  2.2481e-03  1.6161e-02  2.9004e+00  6.0294e-03  4.1483e-03  1.7965e-03  0:13:43 1481
   520  6.6385e-03  2.2415e-03  1.6159e-02  2.7614e+00  6.6363e-03  4.1447e-03  1.7907e-03  0:10:58 1480
   521  7.2666e-03  2.2336e-03  1.6164e-02  2.5280e+00  7.2665e-03  4.1442e-03  1.7857e-03  0:13:42 1479
   522  7.9658e-03  2.2247e-03  1.6174e-02  2.3013e+00  7.9679e-03  4.1709e-03  1.7764e-03  0:10:57 1478
   523  8.8020e-03  2.2164e-03  1.6190e-02  2.0340e+00  8.8064e-03  4.1912e-03  1.7722e-03  0:13:41 1477
   524  9.8469e-03  2.2099e-03  1.6208e-02  1.8475e+00  9.8541e-03  4.2053e-03  1.7668e-03  0:10:56 1476
   525  1.0709e-02  2.2013e-03  1.6228e-02  1.6717e+00  1.0718e-02  4.2270e-03  1.7635e-03  0:13:39 1475
   526  1.1411e-02  2.1941e-03  1.6249e-02  1.5678e+00  1.1421e-02  4.2458e-03  1.7567e-03  0:10:55 1474
   527  1.2189e-02  2.1859e-03  1.6268e-02  1.5559e+00  1.2201e-02  4.2566e-03  1.7456e-03  0:13:38 1473
   528  1.3309e-02  2.1753e-03  1.6284e-02  1.6165e+00  1.3323e-02  4.2726e-03  1.7404e-03  0:10:54 1472

  iter  continuity  x-velocity  y-velocity  z-velocity      energy           k       omega     time/iter
   529  1.4293e-02  2.1648e-03  1.6296e-02  1.6993e+00  1.4309e-02  4.2832e-03  1.7316e-03  0:13:37 1471
   530  1.5588e-02  2.1537e-03  1.6304e-02  1.8067e+00  1.5606e-02  4.2877e-03  1.7245e-03  0:10:53 1470
   531  1.6237e-02  2.1381e-03  1.6312e-02  1.8903e+00  1.6257e-02  4.2762e-03  1.7196e-03  0:13:36 1469
   532  1.6089e-02  2.1200e-03  1.6318e-02  1.9505e+00  1.6108e-02  4.2650e-03  1.7120e-03  0:10:52 1468
   533  1.5353e-02  2.1026e-03  1.6321e-02  1.9965e+00  1.5369e-02  4.2476e-03  1.7033e-03  0:13:35 1467
   534  1.4623e-02  2.0894e-03  1.6316e-02  2.0119e+00  1.4637e-02  4.2250e-03  1.6976e-03  0:10:52 1466
   535  1.4196e-02  2.0770e-03  1.6299e-02  1.9876e+00  1.4209e-02  4.2096e-03  1.6890e-03  0:13:34 1465
   536  1.3623e-02  2.0676e-03  1.6272e-02  1.9604e+00  1.3634e-02  4.1803e-03  1.6807e-03  0:10:51 1464
   537  1.2894e-02  2.0666e-03  1.6231e-02  1.9143e+00  1.2903e-02  4.1542e-03  1.6778e-03  0:13:33 1463
   538  1.2281e-02  2.0739e-03  1.6175e-02  1.8681e+00  1.2287e-02  4.1180e-03  1.6809e-03  0:10:50 1462
   539  1.1679e-02  2.0844e-03  1.6104e-02  1.8173e+00  1.1684e-02  4.0811e-03  1.6814e-03  0:13:32 1461

  iter  continuity  x-velocity  y-velocity  z-velocity      energy           k       omega     time/iter
   540  1.0906e-02  2.0974e-03  1.6020e-02  1.7682e+00  1.0908e-02  4.0451e-03  1.6800e-03  0:15:41 1460
   541  9.9987e-03  2.1057e-03  1.5911e-02  1.7219e+00  9.9987e-03  4.0186e-03  1.6808e-03  0:12:32 1459
   542  9.0368e-03  2.1188e-03  1.5780e-02  1.6778e+00  9.0338e-03  3.9914e-03  1.6833e-03  0:14:53 1458
   543  8.0869e-03  2.1367e-03  1.5636e-02  1.6392e+00  8.0807e-03  3.9716e-03  1.6858e-03  0:11:54 1457
   544  7.2285e-03  2.1585e-03  1.5492e-02  1.6095e+00  7.2192e-03  3.9589e-03  1.6875e-03  0:14:22 1456
   545  6.5583e-03  2.1782e-03  1.5353e-02  1.5858e+00  6.5462e-03  3.9471e-03  1.6862e-03  0:11:29 1455
   546  6.0740e-03  2.1957e-03  1.5232e-02  1.5711e+00  6.0598e-03  3.9371e-03  1.6910e-03  0:09:11 1454
   547  5.7838e-03  2.2104e-03  1.5129e-02  1.5556e+00  5.7682e-03  3.9397e-03  1.6922e-03  0:12:11 1453
   548  5.6689e-03  2.2230e-03  1.5044e-02  1.5477e+00  5.6528e-03  3.9365e-03  1.6926e-03  0:09:44 1452
   549  5.7014e-03  2.2357e-03  1.4973e-02  1.5450e+00  5.6854e-03  3.9268e-03  1.6934e-03  0:12:37 1451
   550  5.8283e-03  2.2508e-03  1.4914e-02  1.5489e+00  5.8131e-03  3.8942e-03  1.6995e-03  0:10:05 1450

  iter  continuity  x-velocity  y-velocity  z-velocity      energy           k       omega     time/iter
   551  5.9901e-03  2.2728e-03  1.4863e-02  1.5459e+00  5.9757e-03  3.8677e-03  1.7037e-03  0:12:54 1449
   552  6.1677e-03  2.3032e-03  1.4815e-02  1.5531e+00  6.1541e-03  3.8479e-03  1.7131e-03  0:10:19 1448
   553  6.3326e-03  2.3436e-03  1.4765e-02  1.5619e+00  6.3196e-03  3.8242e-03  1.7208e-03  0:13:04 1447
   554  6.4613e-03  2.3926e-03  1.4712e-02  1.5767e+00  6.4488e-03  3.7988e-03  1.7348e-03  0:10:27 1446
   555  6.5295e-03  2.4475e-03  1.4652e-02  1.5865e+00  6.5171e-03  3.7638e-03  1.7523e-03  0:13:10 1445
   556  6.5427e-03  2.5092e-03  1.4588e-02  1.6135e+00  6.5301e-03  3.7438e-03  1.7608e-03  0:10:32 1444
   557  6.4799e-03  2.5748e-03  1.4516e-02  1.6430e+00  6.4668e-03  3.7258e-03  1.7730e-03  0:13:14 1443
   558  6.3784e-03  2.6347e-03  1.4439e-02  1.6768e+00  6.3648e-03  3.7088e-03  1.7854e-03  0:10:34 1442
   559  6.2747e-03  2.6865e-03  1.4353e-02  1.7014e+00  6.2605e-03  3.6888e-03  1.7982e-03  0:13:15 1441
   560  6.1708e-03  2.7315e-03  1.4267e-02  1.7151e+00  6.1560e-03  3.6772e-03  1.8119e-03  0:10:36 1440
   561  6.0554e-03  2.7698e-03  1.4181e-02  1.7392e+00  6.0401e-03  3.6659e-03  1.8185e-03  0:13:16 1439

  iter  continuity  x-velocity  y-velocity  z-velocity      energy           k       omega     time/iter
   562  5.9201e-03  2.7994e-03  1.4098e-02  1.7502e+00  5.9042e-03  3.6604e-03  1.8347e-03  0:10:36 1438
   563  5.7892e-03  2.8183e-03  1.4014e-02  1.7752e+00  5.7730e-03  3.6682e-03  1.8448e-03  0:08:29 1437
   564  5.6575e-03  2.8329e-03  1.3927e-02  1.7825e+00  5.6409e-03  3.6804e-03  1.8539e-03  0:11:34 1436
   565  5.5173e-03  2.8423e-03  1.3839e-02  1.8068e+00  5.5004e-03  3.6917e-03  1.8575e-03  0:09:15 1435
   566  5.3637e-03  2.8467e-03  1.3755e-02  1.7910e+00  5.3467e-03  3.7114e-03  1.8595e-03  0:12:10 1434
   567  5.2079e-03  2.8454e-03  1.3678e-02  1.7425e+00  5.1910e-03  3.7264e-03  1.8649e-03  0:09:44 1433
   568  5.0683e-03  2.8407e-03  1.3613e-02  1.6961e+00  5.0516e-03  3.7540e-03  1.8748e-03  0:12:33 1432
   569  4.9444e-03  2.8339e-03  1.3564e-02  1.6161e+00  4.9281e-03  3.7858e-03  1.8849e-03  0:10:02 1431
   570  4.7990e-03  2.8267e-03  1.3523e-02  1.5403e+00  4.7831e-03  3.8142e-03  1.8916e-03  0:12:47 1430
   571  4.6507e-03  2.8206e-03  1.3488e-02  1.4345e+00  4.6356e-03  3.8485e-03  1.9058e-03  0:14:59 1429
   572  4.5180e-03  2.8151e-03  1.3470e-02  1.3269e+00  4.5037e-03  3.8816e-03  1.9189e-03  0:11:59 1428

  iter  continuity  x-velocity  y-velocity  z-velocity      energy           k       omega     time/iter
   573  4.3931e-03  2.8092e-03  1.3464e-02  1.2506e+00  4.3796e-03  3.9116e-03  1.9337e-03  0:14:20 1427
   574  4.3132e-03  2.8039e-03  1.3461e-02  1.2110e+00  4.3004e-03  3.9376e-03  1.9452e-03  0:11:28 1426
   575  4.2738e-03  2.7955e-03  1.3444e-02  1.2053e+00  4.2615e-03  3.9575e-03  1.9556e-03  0:09:10 1425
   576  4.2556e-03  2.7877e-03  1.3416e-02  1.2107e+00  4.2436e-03  3.9806e-03  1.9619e-03  0:12:04 1424
   577  4.2514e-03  2.7796e-03  1.3386e-02  1.2290e+00  4.2396e-03  4.0034e-03  1.9712e-03  0:09:39 1423
   578  4.2460e-03  2.7698e-03  1.3355e-02  1.2552e+00  4.2342e-03  4.0227e-03  1.9832e-03  0:12:27 1422
   579  4.2364e-03  2.7573e-03  1.3321e-02  1.2776e+00  4.2244e-03  4.0499e-03  1.9885e-03  0:09:57 1421
   580  4.2234e-03  2.7417e-03  1.3282e-02  1.3198e+00  4.2112e-03  4.0651e-03  1.9947e-03  0:12:42 1420
   581  4.2105e-03  2.7235e-03  1.3244e-02  1.3199e+00  4.1981e-03  4.0699e-03  2.0002e-03  0:10:09 1419
   582  4.1970e-03  2.7028e-03  1.3209e-02  1.3260e+00  4.1845e-03  4.0658e-03  2.0061e-03  0:12:50 1418
   583  4.1581e-03  2.6822e-03  1.3173e-02  1.3353e+00  4.1453e-03  4.0689e-03  2.0111e-03  0:10:16 1417

  iter  continuity  x-velocity  y-velocity  z-velocity      energy           k       omega     time/iter
   584  4.0909e-03  2.6613e-03  1.3136e-02  1.3427e+00  4.0780e-03  4.0704e-03  2.0153e-03  0:12:56 1416
   585  4.0200e-03  2.6414e-03  1.3102e-02  1.3519e+00  4.0069e-03  4.0688e-03  2.0183e-03  0:10:20 1415
   586  3.9528e-03  2.6234e-03  1.3071e-02  1.3523e+00  3.9396e-03  4.0689e-03  2.0211e-03  0:12:58 1414
   587  3.8895e-03  2.6068e-03  1.3042e-02  1.3566e+00  3.8764e-03  4.0797e-03  2.0265e-03  0:10:22 1413
   588  3.8308e-03  2.5921e-03  1.3013e-02  1.3565e+00  3.8177e-03  4.0915e-03  2.0307e-03  0:13:00 1412
   589  3.7741e-03  2.5789e-03  1.2984e-02  1.3737e+00  3.7612e-03  4.1025e-03  2.0347e-03  0:10:23 1411
   590  3.7309e-03  2.5679e-03  1.2959e-02  1.3763e+00  3.7184e-03  4.1140e-03  2.0369e-03  0:13:00 1410
   591  3.7011e-03  2.5579e-03  1.2939e-02  1.3806e+00  3.6890e-03  4.1236e-03  2.0410e-03  0:10:24 1409
   592  3.6874e-03  2.5492e-03  1.2910e-02  1.3891e+00  3.6757e-03  4.1322e-03  2.0441e-03  0:13:00 1408
   593  3.6893e-03  2.5431e-03  1.2884e-02  1.3965e+00  3.6781e-03  4.1398e-03  2.0445e-03  0:10:24 1407
   594  3.6942e-03  2.5378e-03  1.2863e-02  1.4015e+00  3.6836e-03  4.1478e-03  2.0467e-03  0:13:00 1406

  iter  continuity  x-velocity  y-velocity  z-velocity      energy           k       omega     time/iter
   595  3.7168e-03  2.5346e-03  1.2843e-02  1.4019e+00  3.7067e-03  4.1533e-03  2.0493e-03  0:10:23 1405
   596  3.7491e-03  2.5324e-03  1.2823e-02  1.4053e+00  3.7394e-03  4.1587e-03  2.0521e-03  0:12:59 1404
   597  3.7823e-03  2.5314e-03  1.2804e-02  1.4033e+00  3.7731e-03  4.1657e-03  2.0562e-03  0:10:23 1403
   598  3.8289e-03  2.5319e-03  1.2784e-02  1.4112e+00  3.8201e-03  4.1794e-03  2.0614e-03  0:12:58 1402
   599  3.8672e-03  2.5304e-03  1.2762e-02  1.4179e+00  3.8587e-03  4.1918e-03  2.0644e-03  0:10:22 1401
   600  3.8861e-03  2.5251e-03  1.2731e-02  1.4341e+00  3.8780e-03  4.2079e-03  2.0662e-03  0:12:57 1400
   601  3.9224e-03  2.5150e-03  1.2693e-02  1.4652e+00  3.9145e-03  4.2239e-03  2.0704e-03  0:10:22 1399
   602  3.9437e-03  2.5049e-03  1.2660e-02  1.4911e+00  3.9361e-03  4.2438e-03  2.0728e-03  0:12:56 1398
   603  3.9606e-03  2.4965e-03  1.2629e-02  1.5023e+00  3.9533e-03  4.2601e-03  2.0781e-03  0:10:21 1397
   604  3.9947e-03  2.4906e-03  1.2598e-02  1.5137e+00  3.9875e-03  4.2746e-03  2.0863e-03  0:08:16 1396
   605  4.0385e-03  2.4868e-03  1.2547e-02  1.5245e+00  4.0312e-03  4.2912e-03  2.0951e-03  0:11:16 1395

  iter  continuity  x-velocity  y-velocity  z-velocity      energy           k       omega     time/iter
   606  4.0815e-03  2.4841e-03  1.2480e-02  1.5305e+00  4.0741e-03  4.3079e-03  2.1049e-03  0:09:00 1394
   607  4.1159e-03  2.4832e-03  1.2426e-02  1.5470e+00  4.1086e-03  4.3265e-03  2.1154e-03  0:11:50 1393
   608  4.1560e-03  2.4828e-03  1.2369e-02  1.5626e+00  4.1489e-03  4.3510e-03  2.1243e-03  0:09:28 1392
   609  4.1830e-03  2.4816e-03  1.2301e-02  1.5792e+00  4.1764e-03  4.3733e-03  2.1334e-03  0:12:12 1391
   610  4.2448e-03  2.4796e-03  1.2228e-02  1.5969e+00  4.2384e-03  4.3926e-03  2.1421e-03  0:09:45 1390
   611  4.3353e-03  2.4756e-03  1.2146e-02  1.6160e+00  4.3290e-03  4.4169e-03  2.1498e-03  0:12:26 1389
   612  4.4538e-03  2.4697e-03  1.2060e-02  1.6391e+00  4.4474e-03  4.4450e-03  2.1544e-03  0:09:56 1388
   613  4.5651e-03  2.4618e-03  1.1976e-02  1.6702e+00  4.5588e-03  4.4699e-03  2.1562e-03  0:12:34 1387
   614  4.5688e-03  2.4458e-03  1.1901e-02  1.6926e+00  4.5627e-03  4.4944e-03  2.1586e-03  0:10:03 1386
   615  4.5656e-03  2.4356e-03  1.1830e-02  1.7179e+00  4.5598e-03  4.5258e-03  2.1606e-03  0:12:39 1385
   616  4.5402e-03  2.4297e-03  1.1750e-02  1.7390e+00  4.5344e-03  4.5590e-03  2.1618e-03  0:10:07 1384

  iter  continuity  x-velocity  y-velocity  z-velocity      energy           k       omega     time/iter
   617  4.4972e-03  2.4254e-03  1.1675e-02  1.7509e+00  4.4913e-03  4.5879e-03  2.1619e-03  0:12:42 1383
   618  4.4896e-03  2.4196e-03  1.1602e-02  1.7754e+00  4.4838e-03  4.6067e-03  2.1605e-03  0:10:09 1382
   619  4.4694e-03  2.4143e-03  1.1537e-02  1.8081e+00  4.4636e-03  4.6229e-03  2.1619e-03  0:12:43 1381
   620  4.3950e-03  2.4085e-03  1.1466e-02  1.8183e+00  4.3889e-03  4.6297e-03  2.1648e-03  0:10:10 1380
   621  4.3068e-03  2.3998e-03  1.1393e-02  1.8383e+00  4.3004e-03  4.6391e-03  2.1706e-03  0:12:43 1379
   622  4.2103e-03  2.3902e-03  1.1340e-02  1.8557e+00  4.2034e-03  4.6449e-03  2.1694e-03  0:10:10 1378
   623  4.0669e-03  2.3824e-03  1.1283e-02  1.8541e+00  4.0596e-03  4.6451e-03  2.1653e-03  0:12:43 1377
   624  3.9075e-03  2.3765e-03  1.1214e-02  1.8409e+00  3.8996e-03  4.6515e-03  2.1575e-03  0:10:10 1376
   625  3.7358e-03  2.3732e-03  1.1152e-02  1.8086e+00  3.7274e-03  4.6604e-03  2.1525e-03  0:12:43 1375
   626  3.5431e-03  2.3719e-03  1.1096e-02  1.7733e+00  3.5342e-03  4.6677e-03  2.1503e-03  0:10:10 1374
   627  3.3381e-03  2.3724e-03  1.1043e-02  1.7268e+00  3.3289e-03  4.6721e-03  2.1466e-03  0:12:42 1373
[...]

  iter  continuity  x-velocity  y-velocity  z-velocity      energy           k       omega     time/iter
  1849  3.1057e-03  2.3553e-03  1.1777e-02  9.9067e+00  3.0951e-03  4.4666e-03  2.1167e-03  0:00:43  151
  1850  3.2835e-03  2.3711e-03  1.1838e-02  9.9922e+00  3.2735e-03  4.5040e-03  2.1169e-03  0:00:34  150
  1851  3.5065e-03  2.3869e-03  1.1894e-02  1.0100e+01  3.4973e-03  4.5262e-03  2.1234e-03  0:00:57  149
  1852  3.7630e-03  2.4022e-03  1.1950e-02  1.0208e+01  3.7546e-03  4.5503e-03  2.1286e-03  0:00:45  148
  1853  4.0093e-03  2.4186e-03  1.2005e-02  1.0297e+01  4.0016e-03  4.6017e-03  2.1388e-03  0:00:36  147
  1854  4.2477e-03  2.4357e-03  1.2062e-02  1.0401e+01  4.2406e-03  4.6679e-03  2.1497e-03  0:00:29  146
  1855  4.5189e-03  2.4524e-03  1.2121e-02  1.0513e+01  4.5125e-03  4.7333e-03  2.1573e-03  0:00:52  145
  1856  4.8431e-03  2.4680e-03  1.2179e-02  1.0625e+01  4.8375e-03  4.7830e-03  2.1606e-03  0:00:41  144
  1857  5.1525e-03  2.4820e-03  1.2235e-02  1.0721e+01  5.1476e-03  4.8338e-03  2.1615e-03  0:00:33  143
  1858  5.3963e-03  2.4947e-03  1.2289e-02  1.0782e+01  5.3919e-03  4.8847e-03  2.1667e-03  0:00:26  142
  1859  5.6483e-03  2.5048e-03  1.2340e-02  1.0762e+01  5.6444e-03  4.9353e-03  2.1746e-03  0:00:49  141

  iter  continuity  x-velocity  y-velocity  z-velocity      energy           k       omega     time/iter
  1860  5.7958e-03  2.5127e-03  1.2390e-02  1.0624e+01  5.7922e-03  4.9865e-03  2.1730e-03  0:00:39  140
  1861  5.8941e-03  2.5185e-03  1.2440e-02  1.0386e+01  5.8907e-03  5.0694e-03  2.1729e-03  0:00:31  139
  1862  6.0091e-03  2.5225e-03  1.2490e-02  1.0075e+01  6.0061e-03  5.1433e-03  2.1710e-03  0:00:52  138
  1863  6.1092e-03  2.5257e-03  1.2540e-02  9.7234e+00  6.1064e-03  5.2116e-03  2.1566e-03  0:00:41  137
  1864  6.1925e-03  2.5282e-03  1.2594e-02  9.3577e+00  6.1901e-03  5.2826e-03  2.1500e-03  0:00:33  136
  1865  6.2535e-03  2.5310e-03  1.2651e-02  9.0906e+00  6.2513e-03  5.3742e-03  2.1514e-03  0:00:53  135
  1866  6.2911e-03  2.5332e-03  1.2716e-02  8.7504e+00  6.2892e-03  5.4526e-03  2.1524e-03  0:00:42  134
  1867  6.3053e-03  2.5349e-03  1.2788e-02  8.3520e+00  6.3037e-03  5.4975e-03  2.1629e-03  0:00:33  133
  1868  6.2993e-03  2.5380e-03  1.2868e-02  7.9053e+00  6.2979e-03  5.5387e-03  2.1695e-03  0:00:53  132
  1869  6.2810e-03  2.5411e-03  1.2955e-02  7.4419e+00  6.2798e-03  5.5872e-03  2.1758e-03  0:00:42  131
  1870  6.2515e-03  2.5456e-03  1.3049e-02  6.9880e+00  6.2504e-03  5.6326e-03  2.1831e-03  0:00:33  130

  iter  continuity  x-velocity  y-velocity  z-velocity      energy           k       omega     time/iter
  1871  6.2225e-03  2.5504e-03  1.3151e-02  6.5602e+00  6.2216e-03  5.7041e-03  2.1881e-03  0:00:27  129
  1872  6.1922e-03  2.5557e-03  1.3262e-02  6.1957e+00  6.1915e-03  5.8480e-03  2.1938e-03  0:00:47  128
  1873  6.1586e-03  2.5621e-03  1.3380e-02  5.9036e+00  6.1582e-03  5.9703e-03  2.1956e-03  0:00:37  127
  1874  6.1194e-03  2.5692e-03  1.3500e-02  5.6887e+00  6.1191e-03  6.0422e-03  2.2098e-03  0:00:29  126
  1875  6.0726e-03  2.5754e-03  1.3622e-02  5.5431e+00  6.0726e-03  6.0886e-03  2.2354e-03  0:00:48  125
  1876  6.0148e-03  2.5820e-03  1.3743e-02  5.4891e+00  6.0149e-03  6.1546e-03  2.2560e-03  0:00:38  124
  1877  5.9510e-03  2.5894e-03  1.3865e-02  5.4726e+00  5.9513e-03  6.2422e-03  2.2636e-03  0:00:30  123
  1878  5.8801e-03  2.5974e-03  1.3984e-02  5.4920e+00  5.8804e-03  6.3234e-03  2.2762e-03  0:00:24  122
  1879  5.7982e-03  2.6046e-03  1.4099e-02  5.5250e+00  5.7986e-03  6.4097e-03  2.2846e-03  0:00:43  121
  1880  5.6985e-03  2.6107e-03  1.4210e-02  5.5885e+00  5.6990e-03  6.4868e-03  2.2936e-03  0:00:34  120
  1881  5.5836e-03  2.6172e-03  1.4320e-02  5.6755e+00  5.5840e-03  6.5466e-03  2.2991e-03  0:00:27  119

  iter  continuity  x-velocity  y-velocity  z-velocity      energy           k       omega     time/iter
  1882  5.4512e-03  2.6223e-03  1.4431e-02  5.7666e+00  5.4516e-03  6.6305e-03  2.3111e-03  0:00:22  118
  1883  5.3044e-03  2.6259e-03  1.4541e-02  5.8614e+00  5.3047e-03  6.7273e-03  2.3131e-03  0:00:41  117
  1884  5.1473e-03  2.6281e-03  1.4650e-02  5.9644e+00  5.1475e-03  6.8419e-03  2.3249e-03  0:00:32  116
  1885  4.9766e-03  2.6299e-03  1.4757e-02  6.0700e+00  4.9767e-03  7.0018e-03  2.3289e-03  0:00:26  115
  1886  4.7972e-03  2.6318e-03  1.4862e-02  6.1589e+00  4.7971e-03  7.1108e-03  2.3278e-03  0:00:43  114
  1887  4.6095e-03  2.6330e-03  1.4964e-02  6.2407e+00  4.6093e-03  7.1569e-03  2.3276e-03  0:00:34  113
  1888  4.4223e-03  2.6335e-03  1.5063e-02  6.2876e+00  4.4219e-03  7.2407e-03  2.3392e-03  0:00:27  112
  1889  4.2381e-03  2.6334e-03  1.5161e-02  6.3139e+00  4.2375e-03  7.3631e-03  2.3567e-03  0:00:21  111
  1890  4.0535e-03  2.6330e-03  1.5255e-02  6.3120e+00  4.0527e-03  7.4255e-03  2.3572e-03  0:00:39  110
  1891  3.8647e-03  2.6321e-03  1.5344e-02  6.2714e+00  3.8636e-03  7.4868e-03  2.3500e-03  0:00:31  109
  1892  3.6842e-03  2.6307e-03  1.5430e-02  6.2102e+00  3.6829e-03  7.4988e-03  2.3436e-03  0:00:25  108

  iter  continuity  x-velocity  y-velocity  z-velocity      energy           k       omega     time/iter
  1893  3.5108e-03  2.6286e-03  1.5507e-02  6.1263e+00  3.5094e-03  7.5063e-03  2.3504e-03  0:00:19  107
  1894  3.3450e-03  2.6262e-03  1.5573e-02  6.0069e+00  3.3434e-03  7.6023e-03  2.3466e-03  0:00:37  106
  1895  3.1890e-03  2.6241e-03  1.5628e-02  5.8701e+00  3.1873e-03  7.7066e-03  2.3408e-03  0:00:29  105
  1896  3.0446e-03  2.6217e-03  1.5669e-02  5.7308e+00  3.0427e-03  7.7661e-03  2.3358e-03  0:00:23  104
  1897  2.9120e-03  2.6192e-03  1.5698e-02  5.5914e+00  2.9101e-03  7.8081e-03  2.3307e-03  0:00:39  103
  1898  2.7929e-03  2.6172e-03  1.5713e-02  5.4592e+00  2.7908e-03  7.8300e-03  2.3349e-03  0:00:31  102
  1899  2.6883e-03  2.6151e-03  1.5718e-02  5.3332e+00  2.6861e-03  7.7568e-03  2.3350e-03  0:00:24  101
  1900  2.6003e-03  2.6140e-03  1.5710e-02  5.2002e+00  2.5981e-03  7.6695e-03  2.3320e-03  0:00:19  100
  1901  2.5279e-03  2.6139e-03  1.5689e-02  5.0794e+00  2.5256e-03  7.6968e-03  2.3334e-03  0:00:35   99
  1902  2.4647e-03  2.6141e-03  1.5657e-02  4.9583e+00  2.4623e-03  7.6949e-03  2.3243e-03  0:00:28   98
  1903  2.4209e-03  2.6140e-03  1.5616e-02  4.8361e+00  2.4184e-03  7.7113e-03  2.3170e-03  0:00:22   97

  iter  continuity  x-velocity  y-velocity  z-velocity      energy           k       omega     time/iter
  1904  2.3985e-03  2.6131e-03  1.5567e-02  4.7214e+00  2.3958e-03  7.6978e-03  2.3087e-03  0:00:17   96
  1905  2.3993e-03  2.6115e-03  1.5510e-02  4.6062e+00  2.3964e-03  7.6356e-03  2.3051e-03  0:00:33   95
  1906  2.4218e-03  2.6087e-03  1.5446e-02  4.4854e+00  2.4188e-03  7.5191e-03  2.3006e-03  0:00:26   94
  1907  2.4599e-03  2.6063e-03  1.5378e-02  4.3572e+00  2.4567e-03  7.3657e-03  2.2940e-03  0:00:21   93
  1908  2.4911e-03  2.6048e-03  1.5305e-02  4.2244e+00  2.4877e-03  7.2370e-03  2.2857e-03  0:00:16   92
  1909  2.4874e-03  2.6041e-03  1.5229e-02  4.0197e+00  2.4836e-03  7.1186e-03  2.2791e-03  0:00:31   91
  1910  2.5260e-03  2.6026e-03  1.5150e-02  3.8048e+00  2.5219e-03  6.9550e-03  2.2664e-03  0:00:25   90
  1911  2.5824e-03  2.6000e-03  1.5068e-02  3.6095e+00  2.5780e-03  6.8100e-03  2.2609e-03  0:00:19   89
  1912  2.6429e-03  2.5962e-03  1.4986e-02  3.4351e+00  2.6382e-03  6.7124e-03  2.2501e-03  0:00:15   88
  1913  2.6979e-03  2.5920e-03  1.4905e-02  3.2823e+00  2.6929e-03  6.6052e-03  2.2437e-03  0:00:30   87
  1914  2.7607e-03  2.5873e-03  1.4822e-02  3.1525e+00  2.7554e-03  6.4896e-03  2.2331e-03  0:00:23   86

  iter  continuity  x-velocity  y-velocity  z-velocity      energy           k       omega     time/iter
  1915  2.8340e-03  2.5814e-03  1.4743e-02  3.0411e+00  2.8285e-03  6.3739e-03  2.2220e-03  0:00:18   85
  1916  2.9141e-03  2.5747e-03  1.4665e-02  2.9374e+00  2.9084e-03  6.2521e-03  2.2166e-03  0:00:15   84
  1917  2.9934e-03  2.5670e-03  1.4588e-02  2.8479e+00  2.9875e-03  6.1306e-03  2.2014e-03  0:00:28   83
  1918  3.0673e-03  2.5584e-03  1.4513e-02  2.7690e+00  3.0612e-03  6.0196e-03  2.1875e-03  0:00:22   82
  1919  3.1310e-03  2.5488e-03  1.4440e-02  2.6902e+00  3.1248e-03  5.8932e-03  2.1748e-03  0:00:18   81
  1920  3.1842e-03  2.5386e-03  1.4370e-02  2.6174e+00  3.1779e-03  5.7687e-03  2.1674e-03  0:00:14   80
  1921  3.2300e-03  2.5275e-03  1.4303e-02  2.5590e+00  3.2236e-03  5.6598e-03  2.1649e-03  0:00:27   79
  1922  3.2672e-03  2.5162e-03  1.4239e-02  2.5054e+00  3.2607e-03  5.5692e-03  2.1576e-03  0:00:21   78
  1923  3.3051e-03  2.5048e-03  1.4178e-02  2.4544e+00  3.2986e-03  5.4936e-03  2.1487e-03  0:00:17   77
  1924  3.3439e-03  2.4929e-03  1.4121e-02  2.3973e+00  3.3373e-03  5.4171e-03  2.1366e-03  0:00:13   76
  1925  3.3445e-03  2.4809e-03  1.4067e-02  2.3360e+00  3.3379e-03  5.3410e-03  2.1291e-03  0:00:25   75

  iter  continuity  x-velocity  y-velocity  z-velocity      energy           k       omega     time/iter
  1926  3.3256e-03  2.4693e-03  1.4016e-02  2.2747e+00  3.3189e-03  5.2756e-03  2.1234e-03  0:00:20   74
  1927  3.2996e-03  2.4585e-03  1.3968e-02  2.2105e+00  3.2930e-03  5.2190e-03  2.1182e-03  0:00:16   73
  1928  3.2621e-03  2.4489e-03  1.3922e-02  2.1344e+00  3.2554e-03  5.1674e-03  2.1182e-03  0:00:27   72
  1929  3.2108e-03  2.4413e-03  1.3881e-02  2.0595e+00  3.2041e-03  5.1102e-03  2.1173e-03  0:00:21   71
  1930  3.1665e-03  2.4354e-03  1.3847e-02  1.9748e+00  3.1599e-03  5.0551e-03  2.1187e-03  0:00:17   70
  1931  3.1288e-03  2.4305e-03  1.3808e-02  1.8906e+00  3.1221e-03  5.0081e-03  2.1160e-03  0:00:13   69
  1932  3.1076e-03  2.4265e-03  1.3776e-02  1.8031e+00  3.1010e-03  4.9632e-03  2.1071e-03  0:00:24   68
  1933  3.0870e-03  2.4239e-03  1.3747e-02  1.7070e+00  3.0803e-03  4.9290e-03  2.0991e-03  0:00:19   67
  1934  3.0733e-03  2.4220e-03  1.3722e-02  1.6231e+00  3.0667e-03  4.8949e-03  2.0900e-03  0:00:15   66
  1935  3.0661e-03  2.4213e-03  1.3702e-02  1.5406e+00  3.0595e-03  4.8606e-03  2.0847e-03  0:00:12   65
  1936  3.0671e-03  2.4212e-03  1.3686e-02  1.4612e+00  3.0605e-03  4.8259e-03  2.0855e-03  0:00:22   64

  iter  continuity  x-velocity  y-velocity  z-velocity      energy           k       omega     time/iter
  1937  3.0312e-03  2.4212e-03  1.3673e-02  1.3857e+00  3.0245e-03  4.7897e-03  2.0934e-03  0:00:17   63
  1938  3.0186e-03  2.4227e-03  1.3666e-02  1.3358e+00  3.0119e-03  4.7556e-03  2.1009e-03  0:00:14   62
  1939  2.9747e-03  2.4244e-03  1.3662e-02  1.3018e+00  2.9680e-03  4.7191e-03  2.1069e-03  0:00:11   61
  1940  2.9225e-03  2.4268e-03  1.3661e-02  1.2939e+00  2.9157e-03  4.6890e-03  2.1076e-03  0:00:20   60
  1941  2.8730e-03  2.4292e-03  1.3664e-02  1.3083e+00  2.8661e-03  4.6627e-03  2.1015e-03  0:00:16   59
  1942  2.8258e-03  2.4313e-03  1.3670e-02  1.3464e+00  2.8188e-03  4.6392e-03  2.0969e-03  0:00:13   58
  1943  2.7853e-03  2.4332e-03  1.3679e-02  1.3935e+00  2.7781e-03  4.6211e-03  2.0944e-03  0:00:10   57
  1944  2.7532e-03  2.4349e-03  1.3688e-02  1.4484e+00  2.7459e-03  4.6134e-03  2.0990e-03  0:00:19   56
  1945  2.7284e-03  2.4364e-03  1.3699e-02  1.5030e+00  2.7209e-03  4.6139e-03  2.1081e-03  0:00:15   55
  1946  2.7045e-03  2.4372e-03  1.3712e-02  1.5508e+00  2.6969e-03  4.6108e-03  2.1087e-03  0:00:12   54
  1947  2.6833e-03  2.4376e-03  1.3725e-02  1.5892e+00  2.6754e-03  4.5998e-03  2.1109e-03  0:00:20   53

  iter  continuity  x-velocity  y-velocity  z-velocity      energy           k       omega     time/iter
  1948  2.6650e-03  2.4370e-03  1.3740e-02  1.6230e+00  2.6569e-03  4.5912e-03  2.1098e-03  0:00:16   52
  1949  2.6516e-03  2.4360e-03  1.3755e-02  1.6547e+00  2.6433e-03  4.5799e-03  2.1102e-03  0:00:12   51
  1950  2.6325e-03  2.4345e-03  1.3771e-02  1.6823e+00  2.6239e-03  4.5589e-03  2.1137e-03  0:00:10   50
  1951  2.6178e-03  2.4314e-03  1.3788e-02  1.7011e+00  2.6090e-03  4.5379e-03  2.1164e-03  0:00:17   49
  1952  2.6056e-03  2.4288e-03  1.3805e-02  1.7070e+00  2.5966e-03  4.5128e-03  2.1157e-03  0:00:14   48
  1953  2.5936e-03  2.4271e-03  1.3823e-02  1.6995e+00  2.5844e-03  4.4969e-03  2.1147e-03  0:00:11   47
  1954  2.5822e-03  2.4264e-03  1.3842e-02  1.6847e+00  2.5728e-03  4.4813e-03  2.1164e-03  0:00:08   46
  1955  2.5728e-03  2.4259e-03  1.3863e-02  1.6683e+00  2.5633e-03  4.4579e-03  2.1163e-03  0:00:16   45
  1956  2.5621e-03  2.4254e-03  1.3883e-02  1.6505e+00  2.5525e-03  4.4282e-03  2.1154e-03  0:00:12   44
  1957  2.5493e-03  2.4250e-03  1.3903e-02  1.6228e+00  2.5397e-03  4.3980e-03  2.1158e-03  0:00:09   43
  1958  2.5368e-03  2.4248e-03  1.3922e-02  1.5901e+00  2.5271e-03  4.3601e-03  2.1194e-03  0:00:07   42

  iter  continuity  x-velocity  y-velocity  z-velocity      energy           k       omega     time/iter
  1959  2.5216e-03  2.4243e-03  1.3941e-02  1.5458e+00  2.5118e-03  4.3188e-03  2.1154e-03  0:00:14   41
  1960  2.5041e-03  2.4238e-03  1.3961e-02  1.4928e+00  2.4943e-03  4.2809e-03  2.1152e-03  0:00:11   40
  1961  2.4831e-03  2.4233e-03  1.3980e-02  1.4315e+00  2.4733e-03  4.2484e-03  2.1138e-03  0:00:09   39
  1962  2.4567e-03  2.4223e-03  1.4000e-02  1.3726e+00  2.4469e-03  4.2139e-03  2.1117e-03  0:00:07   38
  1963  2.4249e-03  2.4213e-03  1.4021e-02  1.3141e+00  2.4151e-03  4.1782e-03  2.1092e-03  0:00:13   37
  1964  2.3877e-03  2.4201e-03  1.4041e-02  1.2513e+00  2.3779e-03  4.1468e-03  2.1050e-03  0:00:10   36
  1965  2.3460e-03  2.4184e-03  1.4062e-02  1.1935e+00  2.3363e-03  4.1196e-03  2.1057e-03  0:00:08   35
  1966  2.2998e-03  2.4161e-03  1.4082e-02  1.1383e+00  2.2902e-03  4.0926e-03  2.1064e-03  0:00:06   34
  1967  2.2495e-03  2.4127e-03  1.4103e-02  1.0847e+00  2.2399e-03  4.0557e-03  2.1004e-03  0:00:11   33
  1968  2.1964e-03  2.4082e-03  1.4124e-02  1.0295e+00  2.1869e-03  4.0150e-03  2.0947e-03  0:00:09   32
  1969  2.1414e-03  2.4032e-03  1.4145e-02  9.7087e-01  2.1320e-03  3.9819e-03  2.0927e-03  0:00:07   31

  iter  continuity  x-velocity  y-velocity  z-velocity      energy           k       omega     time/iter
  1970  2.0866e-03  2.3979e-03  1.4166e-02  9.1277e-01  2.0773e-03  3.9531e-03  2.0954e-03  0:00:05   30
  1971  2.0303e-03  2.3922e-03  1.4188e-02  8.5929e-01  2.0211e-03  3.9219e-03  2.0913e-03  0:00:10   29
  1972  1.9747e-03  2.3862e-03  1.4209e-02  8.1081e-01  1.9658e-03  3.8911e-03  2.0904e-03  0:00:08   28
  1973  1.9191e-03  2.3796e-03  1.4230e-02  7.6916e-01  1.9104e-03  3.8593e-03  2.0864e-03  0:00:06   27
  1974  1.8642e-03  2.3727e-03  1.4250e-02  7.3580e-01  1.8557e-03  3.8220e-03  2.0847e-03  0:00:05   26
  1975  1.8116e-03  2.3658e-03  1.4270e-02  7.0799e-01  1.8034e-03  3.7809e-03  2.0830e-03  0:00:08   25
  1976  1.7626e-03  2.3590e-03  1.4288e-02  6.8769e-01  1.7545e-03  3.7355e-03  2.0765e-03  0:00:07   24
  1977  1.7208e-03  2.3523e-03  1.4306e-02  6.7655e-01  1.7131e-03  3.6956e-03  2.0725e-03  0:00:05   23
  1978  1.6845e-03  2.3453e-03  1.4323e-02  6.7425e-01  1.6771e-03  3.6529e-03  2.0668e-03  0:00:04   22
  1979  1.6498e-03  2.3383e-03  1.4338e-02  6.8329e-01  1.6427e-03  3.6065e-03  2.0618e-03  0:00:07   21
  1980  1.6147e-03  2.3314e-03  1.4352e-02  6.9551e-01  1.6078e-03  3.5568e-03  2.0538e-03  0:00:05   20

  iter  continuity  x-velocity  y-velocity  z-velocity      energy           k       omega     time/iter
  1981  1.5815e-03  2.3245e-03  1.4365e-02  7.0956e-01  1.5748e-03  3.5115e-03  2.0496e-03  0:00:04   19
  1982  1.5523e-03  2.3175e-03  1.4377e-02  7.2544e-01  1.5458e-03  3.4723e-03  2.0457e-03  0:00:03   18
  1983  1.5278e-03  2.3105e-03  1.4387e-02  7.3994e-01  1.5214e-03  3.4322e-03  2.0335e-03  0:00:06   17
  1984  1.5074e-03  2.3032e-03  1.4396e-02  7.5244e-01  1.5011e-03  3.3910e-03  2.0253e-03  0:00:04   16
  1985  1.4898e-03  2.2958e-03  1.4403e-02  7.6286e-01  1.4836e-03  3.3532e-03  2.0192e-03  0:00:03   15
  1986  1.4744e-03  2.2885e-03  1.4408e-02  7.7631e-01  1.4682e-03  3.3192e-03  2.0116e-03  0:00:02   14
  1987  1.4628e-03  2.2812e-03  1.4412e-02  7.9438e-01  1.4566e-03  3.2907e-03  1.9958e-03  0:00:04   13
  1988  1.4564e-03  2.2731e-03  1.4415e-02  8.1593e-01  1.4502e-03  3.2570e-03  1.9928e-03  0:00:03   12
  1989  1.4541e-03  2.2647e-03  1.4416e-02  8.3872e-01  1.4478e-03  3.2221e-03  1.9886e-03  0:00:02   11
  1990  1.4557e-03  2.2565e-03  1.4417e-02  8.5668e-01  1.4493e-03  3.1856e-03  1.9800e-03  0:00:02   10
  1991  1.4601e-03  2.2483e-03  1.4416e-02  8.6922e-01  1.4536e-03  3.1539e-03  1.9633e-03  0:00:01    9

  iter  continuity  x-velocity  y-velocity  z-velocity      energy           k       omega     time/iter
  1992  1.4676e-03  2.2401e-03  1.4413e-02  8.7500e-01  1.4610e-03  3.1260e-03  1.9600e-03  0:00:02    8
  1993  1.4795e-03  2.2321e-03  1.4410e-02  8.7414e-01  1.4728e-03  3.0947e-03  1.9573e-03  0:00:02    7
  1994  1.4963e-03  2.2241e-03  1.4407e-02  8.7478e-01  1.4895e-03  3.0612e-03  1.9462e-03  0:00:01    6
  1995  1.5180e-03  2.2160e-03  1.4402e-02  8.7632e-01  1.5111e-03  3.0336e-03  1.9340e-03  0:00:01    5
  1996  1.5456e-03  2.2080e-03  1.4397e-02  8.6980e-01  1.5387e-03  3.0026e-03  1.9310e-03  0:00:01    4
  1997  1.5804e-03  2.2000e-03  1.4393e-02  8.5378e-01  1.5735e-03  2.9696e-03  1.9227e-03  0:00:01    3
  1998  1.6238e-03  2.1920e-03  1.4388e-02  8.3492e-01  1.6169e-03  2.9414e-03  1.9107e-03  0:00:00    2
  1999  1.6746e-03  2.1837e-03  1.4384e-02  8.1626e-01  1.6678e-03  2.9106e-03  1.9056e-03  0:00:00    1
  2000  1.7328e-03  2.1753e-03  1.4380e-02  8.0346e-01  1.7261e-03  2.8797e-03  1.9021e-03  0:00:00    0

> 
adjoint/                parallel/               server/
define/                 parametric-study/       solve/
display/                plot/                   surface/
exit                    preferences/            turbo-workflow/
file/                   print-license-usage     views/
mesh/                   report/

> /file/write-case-data project1
Fast-loading "C:\PROGRA~1\ANSYSI~1\v231\fluent\fluent23.1.0\\addons\afd\lib\hdfio.bin"
Done.

Writing to Engs-30669:"C:\Users\kebl7595\Desktop\CFD\Runs\Flap\30 degree\project1.cas.h5" in NODE0 mode and compression level 1 ...
       24072 cells,     1 zone  ...
       80918 faces,     7 zones ...
       33000 nodes,     1 zone  ...
  Done.
Done.

Writing to Engs-30669:"C:\Users\kebl7595\Desktop\CFD\Runs\Flap\30 degree\project1.dat.h5" in NODE0 mode and compression level 1 ...
  Writing results.
Done.

> /file/export/ascii "./surface.dat" wing () no pressure mach-number quit no

Writing "./surface.dat"...

Writing information to ascii file ...
Done.


> /report/forces/wall-forces y -0.5 -0.86603 0 y "Lift"

> /report/forces/wall-forces y 0.86603 -0.5 0 y "Drag"

> ;/exit

> (cx-gui-do cx-set-list-tree-selections "NavigationPane*Frame2*Table1*List_Tree2" (list "Results|Graphics"))
(cx-gui-do cx-set-list-tree-selections "NavigationPane*Frame2*Table1*List_Tree2" (list "Results|Graphics"))
(cx-gui-do cx-activate-item "NavigationPane*Frame2*Table1*List_Tree2")
(cx-gui-do cx-set-list-tree-selections "NavigationPane*Frame2*Table1*List_Tree2" (list "Results|Graphics"))
(cx-gui-do cx-set-list-tree-selections "NavigationPane*Frame2*Table1*List_Tree2" (list "Results|Graphics|Pathlines"))
(cx-gui-do cx-set-list-tree-selections "NavigationPane*Frame2*Table1*List_Tree2" (list "Results|Graphics|Pathlines"))
(cx-gui-do cx-activate-item "NavigationPane*Frame2*Table1*List_Tree2")
(cx-gui-do cx-set-list-tree-selections "NavigationPane*Frame2*Table1*List_Tree2" (list "Results|Graphics|Pathlines"))
(cx-gui-do cx-set-list-selections "Pathlines*Frame4*List3(Release from Surfaces)" '( 3))
(cx-gui-do cx-activate-item "Pathlines*Frame4*List3(Release from Surfaces)")
(cx-gui-do cx-activate-item "Pathlines*PanelButtons*PushButton1(OK)")

number tracked = 8024, escaped = 6929, incomplete = 1095
(cx-gui-do cx-activate-item "Pathlines*PanelButtons*PushButton2(Cancel)")
/exit y

Posting ANSYS Product Improvement Program performance data 
Done.
Auto-Transcript Stop Time:  10:26:19, 22 May 2024 GMT Daylight Time 
Total Transcript Time: 15 Minute 42 Second.
