Auto-Transcript Start Time:  10:08:28, 22 May 2024 GMT Daylight Time 
Current Directory: "C:\Users\kebl7595\Desktop\CFD\Runs\Flap\6 degrees"

              Welcome to ANSYS Fluent 2023 R1

              Copyright 1987-2023 ANSYS, Inc. All Rights Reserved.
              Unauthorized use, distribution or duplication is prohibited.
              This product is subject to U.S. laws governing export and re-export.
              For full Legal Notice, see documentation.

Build Time: Nov 28 2022 09:52:02 EST  Build Id: 10208  
 
Connected License Server List:	1055@ansyslic.eng.ox.ac.uk

*********************************************
Info: Your license enables 4-way parallel execution.
For faster simulations, please start the application with the appropriate parallel options.
*********************************************


     --------------------------------------------------------------
     This is an academic version of ANSYS FLUENT. Usage of this product
     license is limited to the terms and conditions specified in your ANSYS
     license form, additional terms section.
     --------------------------------------------------------------
Host spawning Node 0 on machine "Engs-30669" (win64).

------------------------------------------------------------------------------------
ID    Hostname    Core  O.S.         PID    Vendor                                 
------------------------------------------------------------------------------------
n0    Engs-30669  1/32  Windows-x64  47936  13th Gen Intel(R) Core(TM) i9-13900    
host  Engs-30669        Windows-x64  40612  13th Gen Intel(R) Core(TM) i9-13900    

MPI Option Selected: intel
------------------------------------------------------------------------------------

Cleanup script file is C:\\Users\\kebl7595\\Desktop\\CFD\\Runs\\Flap\\6 degrees\\cleanup-fluent-Engs-30669-40612.bat

Posting ANSYS Product Improvement Program startup data
Done.

Reading journal file C:/Users/kebl7595/Desktop/CFD/Runs/Flap/6 degrees/project1.jou...

> /file/set-batch-options no no no 

> 
define/                 parametric-study/       solve/
display/                plot/                   surface/
exit                    preferences/            switch-to-meshing-mode
file/                   print-license-usage     turbo-workflow/
mesh/                   report/                 views/
parallel/               server/

> /file/import/cgns/mesh  "./project1.cgns"
Engs-30669 has other FLUENT parallel processes running.                       Process affinity not being set.

Importing "./project1.cgns"

Opening library "C:\\PROGRA~1\\ANSYSI~1\\v231\\fluent\\fluent23.1.0\\vki\\win64\\devtools4.4.6.dll"... done.

Read    33000 nodes
   24072 hexahedral cells, zone  1
   17404 quadrilateral wall faces, zone  2.
   63040 quadrilateral interior faces, zone  3.
     474 quadrilateral interface faces, zone  4.

Building...
     mesh
     materials,
     interface,
     domains,
     zones,
	interface-default_subface
	default_interior-1
	default_subface
	default
     parallel,
The automatic selection for flux type has changed to Rhie-Chow: momentum based.

Done.


> 
adjoint/                parallel/               server/
define/                 parametric-study/       solve/
display/                plot/                   surface/
exit                    preferences/            turbo-workflow/
file/                   print-license-usage     views/
mesh/                   report/

> /define/models/solver/density-based-implicit yes

> 
adjoint/                parallel/               server/
define/                 parametric-study/       solve/
display/                plot/                   surface/
exit                    preferences/            turbo-workflow/
file/                   print-license-usage     views/
mesh/                   report/

> /define/models/energy? yes yes invalid command [yes]
yes

> /define/models/viscous/kw-standard? yes

> 
adjoint/                parallel/               server/
define/                 parametric-study/       solve/
display/                plot/                   surface/
exit                    preferences/            turbo-workflow/
file/                   print-license-usage     views/
mesh/                   report/

> /define/materials/change-create air air air is a fluid
yes 
Density
ideal-gas no data required.

no no no no no no

> 
adjoint/                parallel/               server/
define/                 parametric-study/       solve/
display/                plot/                   surface/
exit                    preferences/            turbo-workflow/
file/                   print-license-usage     views/
mesh/                   report/

> /mesh/modify-zones/sep-face-zone-angle 2 90 yes

 8024 faces in contiguous region 0
 441 faces in contiguous region 1
 618 faces in contiguous region 2
 8024 faces in contiguous region 3
 297 faces in contiguous region 4
 Separates zone 2 into 5 zone(s).
Updating new zone information...
   created new zone default_subface:009 from default_subface
   created new zone default_subface:008 from default_subface
   created new zone default_subface:007 from default_subface
   created new zone default_subface:006 from default_subface
done.

> 
adjoint/                parallel/               server/
define/                 parametric-study/       solve/
display/                plot/                   surface/
exit                    preferences/            turbo-workflow/
file/                   print-license-usage     views/
mesh/                   report/

> /define/boundary-conditions/zone-name  6 wing

> /define/boundary-conditions/zone-name  2 sym1

> /define/boundary-conditions/zone-name  8 sym2

> 
adjoint/                parallel/               server/
define/                 parametric-study/       solve/
display/                plot/                   surface/
exit                    preferences/            turbo-workflow/
file/                   print-license-usage     views/
mesh/                   report/

> /define/boundary-conditions/zone-name  7 far1

> /define/boundary-conditions/zone-name 9 far2

> 
adjoint/                parallel/               server/
define/                 parametric-study/       solve/
display/                plot/                   surface/
exit                    preferences/            turbo-workflow/
file/                   print-license-usage     views/
mesh/                   report/

> /define/boundary-conditions/zone-type  7 pressure-far-field

> /define/boundary-conditions/zone-type 9 pressure-far-field

> /define/boundary-conditions/zone-type  2 symmetry

> /define/boundary-conditions/zone-type  8 symmetry

> 
adjoint/                parallel/               server/
define/                 parametric-study/       solve/
display/                plot/                   surface/
exit                    preferences/            turbo-workflow/
file/                   print-license-usage     views/
mesh/                   report/

> /define/boundary-conditions/pressure-far-field (far2 far1)
far1 no 0 no 0.1 no 300 yes no 0.99452 no -0.10453 no 0. no yes 5 0.02

> /define/boundary-conditions/pressure-far-field (far2 far1)
far2 no 0 no 0.1 no 300 yes no 0.99452 no -0.10453 no 0. no yes 5 0.02

> 
adjoint/                parallel/               server/
define/                 parametric-study/       solve/
display/                plot/                   surface/
exit                    preferences/            turbo-workflow/
file/                   print-license-usage     views/
mesh/                   report/

> /solve/initialize/compute-defaults/pressure-far-field (far2 far1)
far1

> /solve/initialize/initialize-flow

> 
adjoint/                parallel/               server/
define/                 parametric-study/       solve/
display/                plot/                   surface/
exit                    preferences/            turbo-workflow/
file/                   print-license-usage     views/
mesh/                   report/

> /solve/monitors/residual/convergence-criteria 1.e-9 1.e-9 1.e-9 1.e-9 1.e-9 1.e-9 1.e-9

> /solve/iterate 2000

  iter  continuity  x-velocity  y-velocity  z-velocity      energy           k       omega     time/iter
     1  1.0000e+00  1.0000e+00  1.0000e+00  1.0000e+00  1.0000e+00  5.0664e-02  5.1469e-02  0:33:19 1999
     2  4.6205e-01  2.6100e-01  2.7788e-01  1.0000e+00  4.6442e-01  4.5126e-02  3.8213e-02  0:26:38 1998
     3  2.0664e-01  1.4655e-01  1.5823e-01  9.2912e-01  2.0690e-01  4.0536e-02  3.3223e-02  0:21:18 1997
     4  1.4948e-01  8.6543e-02  1.0500e-01  9.0718e-01  1.5008e-01  3.6705e-02  3.0228e-02  0:23:41 1996
     5  1.2532e-01  5.9606e-02  7.9918e-02  9.4840e-01  1.2623e-01  3.3530e-02  2.8019e-02  0:18:56 1995
     6  1.0801e-01  4.2539e-02  6.4919e-02  9.4031e-01  1.0883e-01  3.0791e-02  2.6110e-02  0:15:09 1994
     7  9.5449e-02  2.9446e-02  5.4306e-02  9.7820e-01  9.6075e-02  2.8424e-02  2.4396e-02  0:12:07 1993
     8  8.9866e-02  2.0308e-02  4.7038e-02  1.0376e+00  9.0388e-02  2.6397e-02  2.2864e-02  0:09:41 1992
     9  8.6284e-02  1.4770e-02  4.2415e-02  1.1019e+00  8.6755e-02  2.4668e-02  2.1522e-02  0:07:45 1991
    10  8.2706e-02  1.1922e-02  4.0069e-02  1.0936e+00  8.3124e-02  2.3193e-02  2.0386e-02  0:12:49 1990
    11  7.8959e-02  1.0357e-02  3.9090e-02  9.9561e-01  7.9316e-02  2.1941e-02  1.9407e-02  0:10:15 1989

  iter  continuity  x-velocity  y-velocity  z-velocity      energy           k       omega     time/iter
    12  7.6004e-02  9.3750e-03  3.9601e-02  1.0535e+00  7.6312e-02  2.0871e-02  1.8491e-02  0:08:12 1988
    13  7.3189e-02  8.7987e-03  4.0649e-02  1.2537e+00  7.3464e-02  1.9954e-02  1.7757e-02  0:06:33 1987
    14  7.0859e-02  8.8176e-03  4.1345e-02  1.4196e+00  7.1109e-02  1.9149e-02  1.7068e-02  0:05:15 1986
    15  6.9137e-02  9.4573e-03  4.1488e-02  1.2541e+00  6.9367e-02  1.8415e-02  1.6368e-02  0:04:11 1985
    16  6.7892e-02  1.0632e-02  4.1418e-02  1.0994e+00  6.8108e-02  1.7741e-02  1.5864e-02  0:09:58 1984
    17  6.6583e-02  1.1909e-02  4.1035e-02  1.0173e+00  6.6788e-02  1.7128e-02  1.5388e-02  0:07:58 1983
    18  6.6380e-02  1.2923e-02  4.0700e-02  1.0127e+00  6.6587e-02  1.6569e-02  1.4978e-02  0:06:22 1982
    19  6.5031e-02  1.3911e-02  4.0503e-02  1.0329e+00  6.5231e-02  1.6050e-02  1.4586e-02  0:05:06 1981
    20  6.2152e-02  1.4801e-02  4.0212e-02  1.0467e+00  6.2338e-02  1.5626e-02  1.4152e-02  0:04:04 1980
    21  5.7263e-02  1.5359e-02  3.9879e-02  1.0452e+00  5.7418e-02  1.5218e-02  1.3742e-02  0:03:15 1979
    22  5.0657e-02  1.5520e-02  3.9511e-02  1.0191e+00  5.0772e-02  1.4841e-02  1.3458e-02  0:02:36 1978

  iter  continuity  x-velocity  y-velocity  z-velocity      energy           k       omega     time/iter
    23  4.3012e-02  1.5139e-02  3.9011e-02  9.6906e-01  4.3083e-02  1.4529e-02  1.3094e-02  0:08:40 1977
    24  3.5547e-02  1.4371e-02  3.8518e-02  8.9512e-01  3.5582e-02  1.4219e-02  1.2726e-02  0:06:56 1976
    25  2.9463e-02  1.3218e-02  3.8102e-02  8.1791e-01  2.9477e-02  1.3953e-02  1.2345e-02  0:05:33 1975
    26  2.5504e-02  1.1706e-02  3.7939e-02  7.5228e-01  2.5516e-02  1.3665e-02  1.2103e-02  0:04:26 1974
    27  2.3785e-02  9.9576e-03  3.7849e-02  7.1039e-01  2.3813e-02  1.3378e-02  1.1757e-02  0:10:07 1973
    28  2.3902e-02  8.4281e-03  3.7879e-02  6.8777e-01  2.3951e-02  1.3099e-02  1.1358e-02  0:08:06 1972
    29  2.4902e-02  7.3625e-03  3.7808e-02  6.7221e-01  2.4967e-02  1.2853e-02  1.1061e-02  0:06:28 1971
    30  2.6219e-02  6.7445e-03  3.7623e-02  6.5918e-01  2.6295e-02  1.2586e-02  1.0748e-02  0:05:10 1970
    31  2.7505e-02  6.3363e-03  3.7240e-02  6.4523e-01  2.7586e-02  1.2329e-02  1.0415e-02  0:04:08 1969
    32  2.8471e-02  6.0443e-03  3.6674e-02  6.2987e-01  2.8552e-02  1.2108e-02  1.0073e-02  0:03:18 1968
    33  2.8878e-02  5.7000e-03  3.5814e-02  6.1056e-01  2.8957e-02  1.1907e-02  9.7570e-03  0:02:39 1967

  iter  continuity  x-velocity  y-velocity  z-velocity      energy           k       omega     time/iter
    34  2.8703e-02  5.3314e-03  3.4686e-02  5.8460e-01  2.8776e-02  1.1695e-02  9.4710e-03  0:08:40 1966
    35  2.8028e-02  4.9312e-03  3.3297e-02  5.5454e-01  2.8094e-02  1.1524e-02  9.1974e-03  0:06:56 1965
    36  2.6912e-02  4.4756e-03  3.1675e-02  5.1974e-01  2.6965e-02  1.1369e-02  8.9671e-03  0:05:33 1964
    37  2.5536e-02  4.0299e-03  2.9897e-02  4.8693e-01  2.5575e-02  1.1221e-02  8.7598e-03  0:04:26 1963
    38  2.4031e-02  3.6626e-03  2.8027e-02  4.5541e-01  2.4052e-02  1.1062e-02  8.5947e-03  0:03:33 1962
    39  2.2609e-02  3.4117e-03  2.6156e-02  4.2586e-01  2.2615e-02  1.0924e-02  8.4620e-03  0:02:50 1961
    40  2.1401e-02  3.3108e-03  2.4279e-02  3.9701e-01  2.1392e-02  1.0800e-02  8.3672e-03  0:08:48 1960
    41  2.0365e-02  3.3376e-03  2.2425e-02  3.7357e-01  2.0345e-02  1.0666e-02  8.3085e-03  0:07:02 1959
    42  1.9569e-02  3.4374e-03  2.0672e-02  3.5410e-01  1.9542e-02  1.0547e-02  8.2636e-03  0:05:38 1958
    43  1.9055e-02  3.6065e-03  1.9075e-02  3.3876e-01  1.9025e-02  1.0464e-02  8.2203e-03  0:04:30 1957
    44  1.8618e-02  3.7654e-03  1.7633e-02  3.2855e-01  1.8589e-02  1.0431e-02  8.1837e-03  0:03:36 1956

  iter  continuity  x-velocity  y-velocity  z-velocity      energy           k       omega     time/iter
    45  1.8331e-02  3.8917e-03  1.6403e-02  3.2744e-01  1.8304e-02  1.0422e-02  8.1830e-03  0:02:53 1955
    46  1.8173e-02  3.9903e-03  1.5555e-02  3.2860e-01  1.8151e-02  1.0386e-02  8.0818e-03  0:08:49 1954
    47  1.8019e-02  3.9684e-03  1.5057e-02  3.2898e-01  1.8001e-02  1.0544e-02  8.1473e-03  0:07:03 1953
    48  1.8040e-02  3.9950e-03  1.4606e-02  3.3178e-01  1.8028e-02  1.0508e-02  8.0355e-03  0:05:38 1952
    49  1.8032e-02  3.9213e-03  1.4388e-02  3.2831e-01  1.8026e-02  1.0527e-02  7.8742e-03  0:04:30 1951
    50  1.7945e-02  3.8118e-03  1.4405e-02  3.3233e-01  1.7944e-02  1.0839e-02  7.9177e-03  0:03:36 1950
    51  1.7764e-02  3.7291e-03  1.4650e-02  3.3529e-01  1.7769e-02  1.0752e-02  7.7654e-03  0:02:53 1949
    52  1.7525e-02  3.6292e-03  1.5067e-02  3.3321e-01  1.7537e-02  1.0521e-02  7.5338e-03  0:02:18 1948
    53  1.7282e-02  3.5110e-03  1.5570e-02  3.3935e-01  1.7299e-02  1.0854e-02  7.5247e-03  0:08:20 1947
    54  1.7141e-02  3.4350e-03  1.6136e-02  3.4540e-01  1.7162e-02  1.0921e-02  7.4244e-03  0:06:40 1946
    55  1.7118e-02  3.3835e-03  1.6750e-02  3.5153e-01  1.7140e-02  1.0761e-02  7.2520e-03  0:05:20 1945

  iter  continuity  x-velocity  y-velocity  z-velocity      energy           k       omega     time/iter
    56  1.7166e-02  3.3367e-03  1.7368e-02  3.5758e-01  1.7185e-02  1.0501e-02  7.1072e-03  0:04:16 1944
    57  1.7300e-02  3.2697e-03  1.8026e-02  3.6465e-01  1.7314e-02  1.0718e-02  7.0829e-03  0:03:24 1943
    58  1.7476e-02  3.2266e-03  1.8712e-02  3.6937e-01  1.7484e-02  1.0805e-02  7.0508e-03  0:02:43 1942
    59  1.7666e-02  3.1930e-03  1.9375e-02  3.7499e-01  1.7667e-02  1.0754e-02  6.9894e-03  0:02:11 1941
    60  1.7814e-02  3.1676e-03  1.9980e-02  3.7911e-01  1.7808e-02  1.0553e-02  6.8949e-03  0:08:12 1940
    61  1.8082e-02  3.1874e-03  2.0606e-02  3.7935e-01  1.8071e-02  1.0458e-02  6.8855e-03  0:06:34 1939
    62  1.8396e-02  3.2350e-03  2.1149e-02  3.7798e-01  1.8381e-02  1.0565e-02  6.9224e-03  0:05:15 1938
    63  1.8702e-02  3.2323e-03  2.1387e-02  3.7544e-01  1.8685e-02  1.0824e-02  6.9571e-03  0:04:12 1937
    64  1.9046e-02  3.1866e-03  2.1586e-02  3.7178e-01  1.9026e-02  1.0856e-02  6.9657e-03  0:03:21 1936
    65  1.9363e-02  3.1130e-03  2.1726e-02  3.6555e-01  1.9342e-02  1.0848e-02  6.9703e-03  0:02:41 1935
    66  1.9604e-02  3.0434e-03  2.1885e-02  3.5660e-01  1.9583e-02  1.0696e-02  6.9465e-03  0:08:35 1934

  iter  continuity  x-velocity  y-velocity  z-velocity      energy           k       omega     time/iter
    67  1.9804e-02  2.9864e-03  2.2015e-02  3.4584e-01  1.9783e-02  1.0792e-02  6.9700e-03  0:06:52 1933
    68  1.9947e-02  2.9263e-03  2.1975e-02  3.3356e-01  1.9926e-02  1.0882e-02  7.0085e-03  0:05:30 1932
    69  1.9940e-02  2.9099e-03  2.1732e-02  3.2028e-01  1.9919e-02  1.0989e-02  7.0385e-03  0:04:24 1931
    70  1.9852e-02  2.9075e-03  2.1363e-02  3.0643e-01  1.9830e-02  1.0947e-02  7.0449e-03  0:03:31 1930
    71  1.9656e-02  2.8816e-03  2.0907e-02  2.9242e-01  1.9634e-02  1.1064e-02  7.0575e-03  0:09:14 1929
    72  1.9388e-02  2.8320e-03  2.0361e-02  2.7972e-01  1.9365e-02  1.1025e-02  7.0418e-03  0:07:23 1928
    73  1.9053e-02  2.8339e-03  1.9734e-02  2.7039e-01  1.9030e-02  1.0940e-02  7.0441e-03  0:05:54 1927
    74  1.8669e-02  2.8650e-03  1.9027e-02  2.6338e-01  1.8644e-02  1.0951e-02  7.0172e-03  0:04:43 1926
    75  1.8156e-02  2.9080e-03  1.8235e-02  2.5970e-01  1.8131e-02  1.0926e-02  7.0490e-03  0:03:47 1925
    76  1.7557e-02  2.9581e-03  1.7421e-02  2.5969e-01  1.7531e-02  1.0880e-02  6.9811e-03  0:03:01 1924
    77  1.6850e-02  3.0079e-03  1.6623e-02  2.5925e-01  1.6823e-02  1.0785e-02  6.9574e-03  0:08:49 1923

  iter  continuity  x-velocity  y-velocity  z-velocity      energy           k       omega     time/iter
    78  1.6086e-02  3.0630e-03  1.5860e-02  2.6086e-01  1.6058e-02  1.0826e-02  6.9018e-03  0:07:03 1922
    79  1.5366e-02  3.1160e-03  1.5167e-02  2.6392e-01  1.5338e-02  1.0825e-02  6.8644e-03  0:05:38 1921
    80  1.4618e-02  3.1523e-03  1.4570e-02  2.6731e-01  1.4591e-02  1.0751e-02  6.8239e-03  0:04:31 1920
    81  1.3926e-02  3.1954e-03  1.4085e-02  2.7206e-01  1.3900e-02  1.0706e-02  6.7445e-03  0:03:36 1919
    82  1.3351e-02  3.2431e-03  1.3707e-02  2.7820e-01  1.3328e-02  1.0687e-02  6.6942e-03  0:09:17 1918
    83  1.2936e-02  3.3171e-03  1.3447e-02  2.8557e-01  1.2917e-02  1.0634e-02  6.6090e-03  0:07:25 1917
    84  1.2652e-02  3.3654e-03  1.3203e-02  2.9314e-01  1.2638e-02  1.0639e-02  6.5384e-03  0:05:56 1916
    85  1.2505e-02  3.4037e-03  1.3077e-02  3.0131e-01  1.2497e-02  1.0613e-02  6.4327e-03  0:04:45 1915
    86  1.2560e-02  3.4406e-03  1.3082e-02  3.1011e-01  1.2557e-02  1.0561e-02  6.3394e-03  0:03:48 1914
    87  1.2832e-02  3.4711e-03  1.3169e-02  3.1984e-01  1.2834e-02  1.0511e-02  6.2325e-03  0:03:02 1913
    88  1.3346e-02  3.5098e-03  1.3310e-02  3.3037e-01  1.3352e-02  1.0493e-02  6.1643e-03  0:08:48 1912

  iter  continuity  x-velocity  y-velocity  z-velocity      energy           k       omega     time/iter
    89  1.4148e-02  3.5452e-03  1.3483e-02  3.4165e-01  1.4159e-02  1.0451e-02  6.0790e-03  0:07:02 1911
    90  1.5235e-02  3.5845e-03  1.3676e-02  3.5425e-01  1.5249e-02  1.0370e-02  6.0460e-03  0:05:37 1910
    91  1.6686e-02  3.6329e-03  1.3877e-02  3.6878e-01  1.6704e-02  1.0311e-02  6.0122e-03  0:04:30 1909
    92  1.7937e-02  3.6630e-03  1.4077e-02  3.8395e-01  1.7957e-02  1.0229e-02  5.9697e-03  0:03:36 1908
    93  1.9185e-02  3.6848e-03  1.4272e-02  3.9878e-01  1.9207e-02  1.0196e-02  5.9242e-03  0:02:53 1907
    94  2.0181e-02  3.6907e-03  1.4452e-02  4.1289e-01  2.0204e-02  1.0118e-02  5.8883e-03  0:08:39 1906
    95  2.1255e-02  3.6884e-03  1.4611e-02  4.2689e-01  2.1278e-02  1.0051e-02  5.8650e-03  0:06:55 1905
    96  2.2298e-02  3.6728e-03  1.4738e-02  4.4152e-01  2.2323e-02  9.9820e-03  5.8454e-03  0:05:32 1904
    97  2.3261e-02  3.6550e-03  1.4830e-02  4.5669e-01  2.3286e-02  9.9365e-03  5.7993e-03  0:04:25 1903
    98  2.4162e-02  3.6323e-03  1.4885e-02  4.7179e-01  2.4188e-02  9.8720e-03  5.7671e-03  0:03:32 1902
    99  2.4995e-02  3.6123e-03  1.4902e-02  4.8646e-01  2.5022e-02  9.8289e-03  5.7500e-03  0:02:50 1901

  iter  continuity  x-velocity  y-velocity  z-velocity      energy           k       omega     time/iter
   100  2.5754e-02  3.6091e-03  1.4879e-02  4.9993e-01  2.5781e-02  9.7859e-03  5.7436e-03  0:08:36 1900
   101  2.6402e-02  3.6325e-03  1.4798e-02  5.1195e-01  2.6431e-02  9.7153e-03  5.7188e-03  0:06:52 1899
   102  2.6874e-02  3.6674e-03  1.4710e-02  5.2205e-01  2.6903e-02  9.6662e-03  5.7053e-03  0:05:30 1898
   103  2.7056e-02  3.7130e-03  1.4604e-02  5.2995e-01  2.7086e-02  9.6345e-03  5.6812e-03  0:04:24 1897
   104  2.6853e-02  3.7731e-03  1.4487e-02  5.3515e-01  2.6883e-02  9.5760e-03  5.6491e-03  0:03:31 1896
   105  2.6132e-02  3.8528e-03  1.4337e-02  5.3744e-01  2.6163e-02  9.5162e-03  5.6144e-03  0:09:08 1895
   106  2.4850e-02  3.9497e-03  1.4139e-02  5.3720e-01  2.4880e-02  9.4946e-03  5.5836e-03  0:07:18 1894
   107  2.3039e-02  4.0500e-03  1.3872e-02  5.3435e-01  2.3068e-02  9.4321e-03  5.5822e-03  0:05:50 1893
   108  2.0782e-02  4.1542e-03  1.3520e-02  5.2902e-01  2.0809e-02  9.4110e-03  5.5683e-03  0:04:40 1892
   109  1.8227e-02  4.2435e-03  1.3074e-02  5.2170e-01  1.8249e-02  9.3864e-03  5.5268e-03  0:03:44 1891
   110  1.5564e-02  4.2728e-03  1.2525e-02  5.1255e-01  1.5581e-02  9.3535e-03  5.5039e-03  0:02:59 1890

  iter  continuity  x-velocity  y-velocity  z-velocity      energy           k       omega     time/iter
   111  1.3047e-02  4.2572e-03  1.1933e-02  5.0161e-01  1.3057e-02  9.3113e-03  5.4873e-03  0:08:41 1889
   112  1.0921e-02  4.1762e-03  1.1356e-02  4.8950e-01  1.0925e-02  9.2898e-03  5.4609e-03  0:06:56 1888
   113  9.3570e-03  4.0235e-03  1.0814e-02  4.7606e-01  9.3541e-03  9.2763e-03  5.4242e-03  0:05:33 1887
   114  8.3987e-03  3.8063e-03  1.0360e-02  4.6088e-01  8.3909e-03  9.2658e-03  5.3850e-03  0:04:26 1886
   115  8.1016e-03  3.5400e-03  1.0009e-02  4.4415e-01  8.0911e-03  9.2362e-03  5.3282e-03  0:03:33 1885
   116  8.3399e-03  3.2449e-03  9.7766e-03  4.2606e-01  8.3288e-03  9.1873e-03  5.2493e-03  0:02:50 1884
   117  8.9248e-03  2.9368e-03  9.6411e-03  4.0662e-01  8.9144e-03  9.1443e-03  5.1656e-03  0:08:33 1883
   118  9.6338e-03  2.6466e-03  9.5779e-03  3.8546e-01  9.6245e-03  9.0937e-03  5.0860e-03  0:06:50 1882
   119  1.0289e-02  2.3510e-03  9.5339e-03  3.6305e-01  1.0281e-02  9.0592e-03  4.9808e-03  0:05:28 1881
   120  1.0801e-02  2.1039e-03  9.4771e-03  3.3967e-01  1.0793e-02  9.0325e-03  4.9019e-03  0:04:22 1880
   121  1.1136e-02  1.9229e-03  9.3870e-03  3.1588e-01  1.1128e-02  9.0251e-03  4.8433e-03  0:03:30 1879

  iter  continuity  x-velocity  y-velocity  z-velocity      energy           k       omega     time/iter
   122  1.1223e-02  1.8024e-03  9.2598e-03  2.9215e-01  1.1215e-02  9.0122e-03  4.7815e-03  0:02:48 1878
   123  1.1177e-02  1.7467e-03  9.1038e-03  2.6848e-01  1.1168e-02  8.9969e-03  4.7215e-03  0:08:29 1877
   124  1.1064e-02  1.7261e-03  8.9338e-03  2.4642e-01  1.1053e-02  9.0088e-03  4.6665e-03  0:06:47 1876
   125  1.0891e-02  1.7354e-03  8.7586e-03  2.2743e-01  1.0878e-02  9.0346e-03  4.6067e-03  0:05:26 1875
   126  1.0698e-02  1.7771e-03  8.6174e-03  2.1259e-01  1.0683e-02  9.0637e-03  4.5659e-03  0:04:20 1874
   127  1.0551e-02  1.8304e-03  8.5085e-03  2.0217e-01  1.0534e-02  9.1107e-03  4.5266e-03  0:03:28 1873
   128  1.0575e-02  1.8865e-03  8.4352e-03  1.9702e-01  1.0556e-02  9.1604e-03  4.4970e-03  0:09:01 1872
   129  1.0820e-02  1.9580e-03  8.4145e-03  1.9709e-01  1.0800e-02  9.2073e-03  4.4769e-03  0:07:12 1871
   130  1.1187e-02  2.0359e-03  8.4347e-03  2.0162e-01  1.1165e-02  9.2709e-03  4.4471e-03  0:05:46 1870
   131  1.1641e-02  2.1130e-03  8.4853e-03  2.1003e-01  1.1618e-02  9.3198e-03  4.4043e-03  0:04:36 1869
   132  1.2121e-02  2.1756e-03  8.5445e-03  2.2138e-01  1.2097e-02  9.3638e-03  4.3732e-03  0:03:41 1868

  iter  continuity  x-velocity  y-velocity  z-velocity      energy           k       omega     time/iter
   133  1.2615e-02  2.2148e-03  8.6075e-03  2.3377e-01  1.2591e-02  9.3992e-03  4.3575e-03  0:02:57 1867
   134  1.3111e-02  2.2375e-03  8.6590e-03  2.4633e-01  1.3085e-02  9.4572e-03  4.3302e-03  0:08:35 1866
   135  1.3548e-02  2.2498e-03  8.6999e-03  2.5871e-01  1.3520e-02  9.5131e-03  4.3098e-03  0:06:51 1865
   136  1.3978e-02  2.2567e-03  8.7463e-03  2.7077e-01  1.3949e-02  9.5489e-03  4.2897e-03  0:05:29 1864
   137  1.4384e-02  2.2663e-03  8.8164e-03  2.8194e-01  1.4353e-02  9.5593e-03  4.2673e-03  0:04:23 1863
   138  1.4709e-02  2.2659e-03  8.8977e-03  2.9220e-01  1.4677e-02  9.5729e-03  4.2496e-03  0:03:30 1862
   139  1.4923e-02  2.2606e-03  8.9824e-03  3.0115e-01  1.4890e-02  9.5903e-03  4.2287e-03  0:02:48 1861
   140  1.5062e-02  2.2587e-03  9.0738e-03  3.0869e-01  1.5029e-02  9.6017e-03  4.2134e-03  0:08:26 1860
   141  1.5149e-02  2.2515e-03  9.1872e-03  3.1480e-01  1.5116e-02  9.6176e-03  4.1824e-03  0:06:45 1859
   142  1.5118e-02  2.2439e-03  9.3159e-03  3.1943e-01  1.5084e-02  9.6271e-03  4.1444e-03  0:05:24 1858
   143  1.5001e-02  2.2346e-03  9.4587e-03  3.2252e-01  1.4967e-02  9.6467e-03  4.1050e-03  0:04:19 1857

  iter  continuity  x-velocity  y-velocity  z-velocity      energy           k       omega     time/iter
   144  1.4805e-02  2.2260e-03  9.6004e-03  3.2390e-01  1.4770e-02  9.6701e-03  4.0713e-03  0:03:27 1856
   145  1.4557e-02  2.2181e-03  9.7462e-03  3.2407e-01  1.4522e-02  9.6690e-03  4.0296e-03  0:08:57 1855
   146  1.4249e-02  2.2136e-03  9.8994e-03  3.2305e-01  1.4214e-02  9.6760e-03  3.9931e-03  0:07:09 1854
   147  1.3912e-02  2.2141e-03  1.0062e-02  3.2086e-01  1.3878e-02  9.6729e-03  3.9682e-03  0:05:43 1853
   148  1.3541e-02  2.2062e-03  1.0216e-02  3.1747e-01  1.3507e-02  9.6848e-03  3.9598e-03  0:04:34 1852
   149  1.3194e-02  2.2058e-03  1.0372e-02  3.1270e-01  1.3161e-02  9.6940e-03  3.9486e-03  0:03:39 1851
   150  1.2972e-02  2.2745e-03  1.0720e-02  3.0670e-01  1.2941e-02  9.7198e-03  3.9589e-03  0:02:55 1850
   151  1.2490e-02  2.2507e-03  1.0819e-02  2.9977e-01  1.2460e-02  9.7357e-03  3.9606e-03  0:08:30 1849
   152  1.2080e-02  2.2516e-03  1.0946e-02  2.9200e-01  1.2051e-02  9.7263e-03  3.9602e-03  0:06:48 1848
   153  1.1745e-02  2.2564e-03  1.1077e-02  2.8355e-01  1.1717e-02  9.7385e-03  3.9736e-03  0:05:26 1847
   154  1.1382e-02  2.2710e-03  1.1210e-02  2.7458e-01  1.1356e-02  9.7527e-03  3.9765e-03  0:04:21 1846

  iter  continuity  x-velocity  y-velocity  z-velocity      energy           k       omega     time/iter
   155  1.1047e-02  2.2949e-03  1.1324e-02  2.6568e-01  1.1023e-02  9.7627e-03  3.9937e-03  0:03:28 1845
   156  1.0764e-02  2.3209e-03  1.1419e-02  2.5641e-01  1.0741e-02  9.7810e-03  4.0269e-03  0:08:55 1844
   157  1.0563e-02  2.3465e-03  1.1496e-02  2.4759e-01  1.0543e-02  9.8043e-03  4.0606e-03  0:07:08 1843
   158  1.0483e-02  2.3782e-03  1.1542e-02  2.3968e-01  1.0464e-02  9.8293e-03  4.0954e-03  0:05:42 1842
   159  1.0525e-02  2.4180e-03  1.1575e-02  2.3232e-01  1.0507e-02  9.8643e-03  4.1419e-03  0:04:34 1841
   160  1.0618e-02  2.4518e-03  1.1591e-02  2.2544e-01  1.0602e-02  9.9045e-03  4.1670e-03  0:03:39 1840
   161  1.0762e-02  2.4799e-03  1.1598e-02  2.1909e-01  1.0748e-02  9.9373e-03  4.2012e-03  0:02:55 1839
   162  1.0904e-02  2.5050e-03  1.1578e-02  2.1455e-01  1.0891e-02  9.9468e-03  4.2408e-03  0:08:28 1838
   163  1.1044e-02  2.5309e-03  1.1549e-02  2.0818e-01  1.1033e-02  9.9579e-03  4.2734e-03  0:06:46 1837
   164  1.1184e-02  2.5631e-03  1.1519e-02  2.0252e-01  1.1173e-02  9.9756e-03  4.2903e-03  0:05:24 1836
   165  1.1275e-02  2.5849e-03  1.1489e-02  1.9884e-01  1.1266e-02  9.9992e-03  4.3205e-03  0:04:19 1835

  iter  continuity  x-velocity  y-velocity  z-velocity      energy           k       omega     time/iter
   166  1.1338e-02  2.5995e-03  1.1448e-02  1.9666e-01  1.1329e-02  1.0000e-02  4.3471e-03  0:09:34 1834
   167  1.1347e-02  2.6159e-03  1.1400e-02  1.9553e-01  1.1338e-02  9.9798e-03  4.3922e-03  0:07:39 1833
   168  1.1283e-02  2.6403e-03  1.1332e-02  1.9560e-01  1.1275e-02  9.9859e-03  4.4209e-03  0:06:07 1832
   169  1.1167e-02  2.6596e-03  1.1266e-02  1.9697e-01  1.1158e-02  9.9651e-03  4.4457e-03  0:04:54 1831
   170  1.1010e-02  2.6711e-03  1.1208e-02  1.9931e-01  1.1000e-02  9.9374e-03  4.4567e-03  0:03:55 1830
   171  1.0825e-02  2.6786e-03  1.1145e-02  2.0256e-01  1.0816e-02  9.9081e-03  4.4846e-03  0:09:13 1829
   172  1.0628e-02  2.6846e-03  1.1082e-02  2.0648e-01  1.0618e-02  9.8970e-03  4.5131e-03  0:07:23 1828
   173  1.0324e-02  2.6686e-03  1.1107e-02  2.1029e-01  1.0313e-02  9.8806e-03  4.5186e-03  0:05:54 1827
   174  1.0020e-02  2.6074e-03  1.0850e-02  2.1412e-01  1.0008e-02  9.8593e-03  4.5137e-03  0:04:43 1826
   175  9.9347e-03  2.6250e-03  1.0793e-02  2.1814e-01  9.9223e-03  9.8250e-03  4.5354e-03  0:03:46 1825
   176  9.8196e-03  2.6305e-03  1.0760e-02  2.2184e-01  9.8066e-03  9.8064e-03  4.5386e-03  0:09:06 1824

  iter  continuity  x-velocity  y-velocity  z-velocity      energy           k       omega     time/iter
   177  9.6527e-03  2.6325e-03  1.0716e-02  2.2494e-01  9.6390e-03  9.7627e-03  4.5406e-03  0:07:16 1823
   178  9.5109e-03  2.6344e-03  1.0661e-02  2.2693e-01  9.4968e-03  9.7223e-03  4.5678e-03  0:05:49 1822
   179  9.4221e-03  2.6392e-03  1.0613e-02  2.2812e-01  9.4077e-03  9.6745e-03  4.5886e-03  0:04:39 1821
   180  9.3975e-03  2.6449e-03  1.0571e-02  2.2961e-01  9.3830e-03  9.6171e-03  4.5949e-03  0:03:43 1820
   181  9.3883e-03  2.6490e-03  1.0543e-02  2.3749e-01  9.3736e-03  9.5837e-03  4.5847e-03  0:02:58 1819
   182  9.3686e-03  2.6461e-03  1.0444e-02  2.3737e-01  9.3540e-03  9.5677e-03  4.5806e-03  0:08:26 1818
   183  9.3177e-03  2.6340e-03  1.0396e-02  2.3337e-01  9.3030e-03  9.5177e-03  4.5808e-03  0:06:45 1817
   184  9.2771e-03  2.6337e-03  1.0358e-02  2.3020e-01  9.2624e-03  9.4463e-03  4.5777e-03  0:05:24 1816
   185  9.2735e-03  2.6384e-03  1.0345e-02  2.2837e-01  9.2588e-03  9.4208e-03  4.5962e-03  0:04:19 1815
   186  9.2727e-03  2.6469e-03  1.0335e-02  2.2670e-01  9.2582e-03  9.3983e-03  4.6085e-03  0:03:27 1814
   187  9.2724e-03  2.6571e-03  1.0315e-02  2.2479e-01  9.2581e-03  9.3468e-03  4.5998e-03  0:08:48 1813

  iter  continuity  x-velocity  y-velocity  z-velocity      energy           k       omega     time/iter
   188  9.2965e-03  2.6679e-03  1.0296e-02  2.2291e-01  9.2823e-03  9.2940e-03  4.5814e-03  0:07:02 1812
   189  9.2920e-03  2.6790e-03  1.0281e-02  2.2086e-01  9.2778e-03  9.2613e-03  4.5806e-03  0:05:38 1811
   190  9.2741e-03  2.6866e-03  1.0257e-02  2.1844e-01  9.2599e-03  9.2662e-03  4.5711e-03  0:04:30 1810
   191  9.2973e-03  2.6897e-03  1.0226e-02  2.1673e-01  9.2831e-03  9.1979e-03  4.5432e-03  0:03:36 1809
   192  9.3709e-03  2.6928e-03  1.0200e-02  2.1557e-01  9.3568e-03  9.0872e-03  4.5002e-03  0:08:54 1808
   193  9.4571e-03  2.6973e-03  1.0176e-02  2.1403e-01  9.4432e-03  9.1211e-03  4.4988e-03  0:07:07 1807
   194  9.5266e-03  2.6966e-03  1.0158e-02  2.1250e-01  9.5128e-03  9.1195e-03  4.4900e-03  0:05:41 1806
   195  9.5964e-03  2.6904e-03  1.0139e-02  2.1056e-01  9.5826e-03  9.0887e-03  4.4847e-03  0:04:33 1805
   196  9.7062e-03  2.6823e-03  1.0124e-02  2.0852e-01  9.6925e-03  9.1077e-03  4.4813e-03  0:03:38 1804
   197  9.8639e-03  2.6676e-03  1.0110e-02  2.0657e-01  9.8503e-03  9.1493e-03  4.4771e-03  0:08:55 1803
   198  1.0075e-02  2.6476e-03  1.0111e-02  2.0583e-01  1.0061e-02  9.1377e-03  4.4469e-03  0:07:08 1802

  iter  continuity  x-velocity  y-velocity  z-velocity      energy           k       omega     time/iter
   199  1.0289e-02  2.6190e-03  1.0119e-02  2.0516e-01  1.0275e-02  9.0724e-03  4.4139e-03  0:05:42 1801
   200  1.0494e-02  2.5915e-03  1.0140e-02  2.0452e-01  1.0481e-02  9.1024e-03  4.3861e-03  0:04:34 1800
   201  1.0688e-02  2.5579e-03  1.0166e-02  2.0495e-01  1.0675e-02  9.2066e-03  4.3728e-03  0:09:39 1799
   202  1.0848e-02  2.5205e-03  1.0192e-02  2.0647e-01  1.0835e-02  9.2126e-03  4.3537e-03  0:07:43 1798
   203  1.1024e-02  2.4861e-03  1.0232e-02  2.0803e-01  1.1012e-02  9.2467e-03  4.3490e-03  0:06:10 1797
   204  1.1185e-02  2.4545e-03  1.0279e-02  2.0915e-01  1.1172e-02  9.3137e-03  4.3348e-03  0:04:56 1796
   205  1.1307e-02  2.4222e-03  1.0335e-02  2.1041e-01  1.1295e-02  9.3659e-03  4.3275e-03  0:03:56 1795
   206  1.1390e-02  2.3901e-03  1.0394e-02  2.1192e-01  1.1377e-02  9.3093e-03  4.2954e-03  0:03:09 1794
   207  1.1410e-02  2.3608e-03  1.0456e-02  2.1315e-01  1.1398e-02  9.3178e-03  4.2783e-03  0:08:30 1793
   208  1.1359e-02  2.3325e-03  1.0518e-02  2.1480e-01  1.1347e-02  9.3318e-03  4.2525e-03  0:06:48 1792
   209  1.1254e-02  2.3023e-03  1.0586e-02  2.1700e-01  1.1241e-02  9.3709e-03  4.2363e-03  0:05:26 1791

  iter  continuity  x-velocity  y-velocity  z-velocity      energy           k       omega     time/iter
   210  1.1134e-02  2.2718e-03  1.0659e-02  2.1952e-01  1.1121e-02  9.3374e-03  4.2164e-03  0:04:21 1790
   211  1.1028e-02  2.2445e-03  1.0731e-02  2.2236e-01  1.1015e-02  9.3872e-03  4.1944e-03  0:09:26 1789
   212  1.0847e-02  2.2206e-03  1.0803e-02  2.2515e-01  1.0835e-02  9.4320e-03  4.1662e-03  0:07:33 1788
   213  1.0600e-02  2.1993e-03  1.0872e-02  2.2835e-01  1.0587e-02  9.4486e-03  4.1514e-03  0:06:02 1787
   214  1.0318e-02  2.1839e-03  1.0938e-02  2.3139e-01  1.0305e-02  9.4468e-03  4.1408e-03  0:04:49 1786
   215  9.9876e-03  2.1714e-03  1.1002e-02  2.3470e-01  9.9745e-03  9.4392e-03  4.1168e-03  0:03:51 1785
   216  9.6270e-03  2.1619e-03  1.1064e-02  2.3768e-01  9.6137e-03  9.4456e-03  4.0931e-03  0:09:02 1784
   217  9.2415e-03  2.1555e-03  1.1123e-02  2.4041e-01  9.2280e-03  9.4434e-03  4.0744e-03  0:07:13 1783
   218  8.8490e-03  2.1516e-03  1.1179e-02  2.4285e-01  8.8353e-03  9.3813e-03  4.0382e-03  0:05:46 1782
   219  8.4661e-03  2.1487e-03  1.1237e-02  2.4502e-01  8.4521e-03  9.3582e-03  4.0194e-03  0:04:37 1781
   220  8.0780e-03  2.1485e-03  1.1297e-02  2.4650e-01  8.0639e-03  9.3442e-03  4.0044e-03  0:03:41 1780

  iter  continuity  x-velocity  y-velocity  z-velocity      energy           k       omega     time/iter
   221  7.6778e-03  2.1501e-03  1.1361e-02  2.4735e-01  7.6634e-03  9.3500e-03  3.9781e-03  0:02:57 1779
   222  7.2811e-03  2.1528e-03  1.1426e-02  2.4758e-01  7.2665e-03  9.3830e-03  3.9629e-03  0:08:17 1778
   223  6.8997e-03  2.1538e-03  1.1496e-02  2.4711e-01  6.8848e-03  9.3544e-03  3.9428e-03  0:06:37 1777
   224  6.5319e-03  2.1570e-03  1.1567e-02  2.4620e-01  6.5169e-03  9.3316e-03  3.9092e-03  0:05:18 1776
   225  6.1876e-03  2.1586e-03  1.1641e-02  2.4482e-01  6.1727e-03  9.2770e-03  3.8615e-03  0:04:14 1775
   226  5.8664e-03  2.1574e-03  1.1716e-02  2.4329e-01  5.8517e-03  9.2354e-03  3.8454e-03  0:03:23 1774
   227  5.5907e-03  2.1524e-03  1.1793e-02  2.4155e-01  5.5763e-03  9.2086e-03  3.8398e-03  0:08:37 1773
   228  5.3665e-03  2.1459e-03  1.1872e-02  2.3947e-01  5.3525e-03  9.2107e-03  3.8292e-03  0:06:53 1772
   229  5.1811e-03  2.1366e-03  1.1948e-02  2.3723e-01  5.1676e-03  9.2202e-03  3.8015e-03  0:05:31 1771
   230  5.0513e-03  2.1272e-03  1.2020e-02  2.3467e-01  5.0384e-03  9.1995e-03  3.7754e-03  0:04:24 1770
   231  5.0211e-03  2.1189e-03  1.2087e-02  2.3176e-01  5.0090e-03  9.1868e-03  3.7670e-03  0:03:31 1769

  iter  continuity  x-velocity  y-velocity  z-velocity      energy           k       omega     time/iter
   232  5.0847e-03  2.1109e-03  1.2145e-02  2.2831e-01  5.0734e-03  9.1430e-03  3.7665e-03  0:08:43 1768
   233  5.2377e-03  2.1032e-03  1.2192e-02  2.2476e-01  5.2272e-03  9.1271e-03  3.7509e-03  0:06:58 1767
   234  5.4470e-03  2.0972e-03  1.2228e-02  2.2169e-01  5.4372e-03  9.0612e-03  3.7453e-03  0:05:34 1766
   235  5.7354e-03  2.0919e-03  1.2249e-02  2.1925e-01  5.7264e-03  9.0430e-03  3.7459e-03  0:10:20 1765
   236  6.0793e-03  2.0885e-03  1.2254e-02  2.1709e-01  6.0708e-03  9.0468e-03  3.7322e-03  0:08:16 1764
   237  6.4620e-03  2.0857e-03  1.2242e-02  2.1468e-01  6.4539e-03  9.0675e-03  3.7321e-03  0:06:36 1763
   238  6.8687e-03  2.0886e-03  1.2216e-02  2.1238e-01  6.8606e-03  9.0896e-03  3.7363e-03  0:05:17 1762
   239  7.2841e-03  2.0974e-03  1.2176e-02  2.1023e-01  7.2759e-03  9.0849e-03  3.7439e-03  0:10:06 1761
   240  7.6819e-03  2.1130e-03  1.2124e-02  2.0844e-01  7.6734e-03  9.0558e-03  3.7345e-03  0:08:04 1760
   241  8.0299e-03  2.1327e-03  1.2060e-02  2.0737e-01  8.0209e-03  9.0387e-03  3.7281e-03  0:06:27 1759
   242  8.3376e-03  2.1547e-03  1.1983e-02  2.0756e-01  8.3281e-03  9.0132e-03  3.7360e-03  0:05:10 1758

  iter  continuity  x-velocity  y-velocity  z-velocity      energy           k       omega     time/iter
   243  8.5840e-03  2.1817e-03  1.1894e-02  2.0827e-01  8.5738e-03  8.9822e-03  3.7350e-03  0:09:59 1757
   244  8.7679e-03  2.2103e-03  1.1795e-02  2.0933e-01  8.7571e-03  8.9896e-03  3.7304e-03  0:07:59 1756
   245  8.9011e-03  2.2375e-03  1.1690e-02  2.1065e-01  8.8895e-03  8.9921e-03  3.7259e-03  0:06:23 1755
   246  9.0103e-03  2.2610e-03  1.1579e-02  2.1199e-01  8.9980e-03  8.9915e-03  3.7241e-03  0:05:06 1754
   247  9.1145e-03  2.2818e-03  1.1464e-02  2.1339e-01  9.1014e-03  8.9929e-03  3.7087e-03  0:04:05 1753
   248  9.2217e-03  2.2985e-03  1.1344e-02  2.1530e-01  9.2078e-03  8.9791e-03  3.7059e-03  0:09:06 1752
   249  9.3627e-03  2.3127e-03  1.1221e-02  2.1848e-01  9.3481e-03  8.9882e-03  3.7019e-03  0:07:17 1751
   250  9.5204e-03  2.3225e-03  1.1097e-02  2.2176e-01  9.5050e-03  8.9802e-03  3.6906e-03  0:05:49 1750
   251  9.6754e-03  2.3294e-03  1.0976e-02  2.2536e-01  9.6593e-03  8.9403e-03  3.6727e-03  0:04:39 1749
   252  9.8513e-03  2.3349e-03  1.0856e-02  2.2884e-01  9.8345e-03  8.9283e-03  3.6620e-03  0:09:33 1748
   253  1.0058e-02  2.3356e-03  1.0739e-02  2.3237e-01  1.0040e-02  8.9120e-03  3.6588e-03  0:07:38 1747

  iter  continuity  x-velocity  y-velocity  z-velocity      energy           k       omega     time/iter
   254  1.0282e-02  2.3280e-03  1.0627e-02  2.3584e-01  1.0264e-02  8.9188e-03  3.6418e-03  0:06:06 1746
   255  1.0476e-02  2.3160e-03  1.0520e-02  2.3896e-01  1.0457e-02  8.9290e-03  3.6276e-03  0:04:53 1745
   256  1.0639e-02  2.3022e-03  1.0423e-02  2.4266e-01  1.0619e-02  8.9224e-03  3.6221e-03  0:03:54 1744
   257  1.0757e-02  2.2813e-03  1.0334e-02  2.4627e-01  1.0737e-02  8.9190e-03  3.5980e-03  0:08:56 1743
   258  1.0859e-02  2.2527e-03  1.0255e-02  2.4948e-01  1.0839e-02  8.9000e-03  3.5734e-03  0:07:08 1742
   259  1.0934e-02  2.2150e-03  1.0184e-02  2.5276e-01  1.0914e-02  8.8599e-03  3.5535e-03  0:05:42 1741
   260  1.0976e-02  2.1738e-03  1.0122e-02  2.5533e-01  1.0955e-02  8.8433e-03  3.5262e-03  0:04:34 1740
   261  1.1018e-02  2.1315e-03  1.0071e-02  2.5759e-01  1.0997e-02  8.8169e-03  3.4872e-03  0:03:39 1739
   262  1.1042e-02  2.0905e-03  1.0030e-02  2.5937e-01  1.1021e-02  8.8061e-03  3.4631e-03  0:08:43 1738
   263  1.1058e-02  2.0505e-03  9.9996e-03  2.6058e-01  1.1037e-02  8.7931e-03  3.4506e-03  0:06:58 1737
   264  1.1067e-02  2.0125e-03  9.9807e-03  2.6116e-01  1.1045e-02  8.7719e-03  3.4270e-03  0:05:34 1736

  iter  continuity  x-velocity  y-velocity  z-velocity      energy           k       omega     time/iter
   265  1.1061e-02  1.9781e-03  9.9741e-03  2.6137e-01  1.1040e-02  8.7359e-03  3.4082e-03  0:04:27 1735
   266  1.1030e-02  1.9464e-03  9.9817e-03  2.6121e-01  1.1009e-02  8.7021e-03  3.3883e-03  0:03:34 1734
   267  1.0985e-02  1.9170e-03  1.0003e-02  2.6058e-01  1.0963e-02  8.6770e-03  3.3575e-03  0:08:37 1733
   268  1.0929e-02  1.8862e-03  1.0036e-02  2.5915e-01  1.0908e-02  8.6576e-03  3.3292e-03  0:06:54 1732
   269  1.0846e-02  1.8605e-03  1.0082e-02  2.5692e-01  1.0825e-02  8.6284e-03  3.3032e-03  0:05:31 1731
   270  1.0762e-02  1.8391e-03  1.0137e-02  2.5404e-01  1.0741e-02  8.6056e-03  3.2749e-03  0:04:24 1730
   271  1.0638e-02  1.8233e-03  1.0201e-02  2.5007e-01  1.0617e-02  8.5839e-03  3.2350e-03  0:09:17 1729
   272  1.0515e-02  1.8098e-03  1.0270e-02  2.4531e-01  1.0495e-02  8.5664e-03  3.2072e-03  0:07:26 1728
   273  1.0403e-02  1.7959e-03  1.0347e-02  2.3999e-01  1.0384e-02  8.5499e-03  3.1971e-03  0:05:56 1727
   274  1.0280e-02  1.7837e-03  1.0432e-02  2.3431e-01  1.0261e-02  8.5450e-03  3.1861e-03  0:04:45 1726
   275  1.0121e-02  1.7747e-03  1.0526e-02  2.2849e-01  1.0103e-02  8.5211e-03  3.1784e-03  0:09:33 1725

  iter  continuity  x-velocity  y-velocity  z-velocity      energy           k       omega     time/iter
   276  1.0034e-02  1.7706e-03  1.0625e-02  2.2300e-01  1.0017e-02  8.4968e-03  3.1821e-03  0:07:38 1724
   277  9.9063e-03  1.7692e-03  1.0729e-02  2.1771e-01  9.8901e-03  8.4714e-03  3.1788e-03  0:06:06 1723
   278  9.7864e-03  1.7722e-03  1.0839e-02  2.1296e-01  9.7712e-03  8.4469e-03  3.1715e-03  0:04:53 1722
   279  9.6380e-03  1.7833e-03  1.0952e-02  2.0914e-01  9.6239e-03  8.4511e-03  3.1718e-03  0:09:38 1721
   280  9.5302e-03  1.7996e-03  1.1064e-02  2.0678e-01  9.5170e-03  8.4576e-03  3.1783e-03  0:07:42 1720
   281  9.4685e-03  1.8188e-03  1.1170e-02  2.0591e-01  9.4559e-03  8.4314e-03  3.1760e-03  0:06:10 1719
   282  9.4313e-03  1.8396e-03  1.1271e-02  2.0612e-01  9.4194e-03  8.4317e-03  3.1762e-03  0:04:56 1718
   283  9.3640e-03  1.8582e-03  1.1359e-02  2.0745e-01  9.3529e-03  8.4067e-03  3.1859e-03  0:03:56 1717
   284  9.2458e-03  1.8713e-03  1.1439e-02  2.0948e-01  9.2356e-03  8.4159e-03  3.1974e-03  0:08:52 1716
   285  9.0848e-03  1.8748e-03  1.1514e-02  2.1271e-01  9.0755e-03  8.3975e-03  3.2033e-03  0:07:05 1715
   286  8.8842e-03  1.8833e-03  1.1572e-02  2.1744e-01  8.8758e-03  8.3814e-03  3.2217e-03  0:05:40 1714

  iter  continuity  x-velocity  y-velocity  z-velocity      energy           k       omega     time/iter
   287  8.6544e-03  1.8943e-03  1.1617e-02  2.2279e-01  8.6468e-03  8.3759e-03  3.2358e-03  0:04:32 1713
   288  8.4109e-03  1.9034e-03  1.1652e-02  2.3038e-01  8.4040e-03  8.3662e-03  3.2404e-03  0:09:20 1712
   289  8.1641e-03  1.9174e-03  1.1676e-02  2.3888e-01  8.1577e-03  8.3595e-03  3.2490e-03  0:07:28 1711
   290  7.9211e-03  1.9357e-03  1.1690e-02  2.4930e-01  7.9151e-03  8.3608e-03  3.2487e-03  0:05:58 1710
   291  7.6918e-03  1.9543e-03  1.1693e-02  2.6019e-01  7.6859e-03  8.3842e-03  3.2595e-03  0:04:46 1709
   292  7.4590e-03  1.9720e-03  1.1680e-02  2.7153e-01  7.4532e-03  8.3757e-03  3.2716e-03  0:03:49 1708
   293  7.2120e-03  1.9920e-03  1.1656e-02  2.8360e-01  7.2062e-03  8.3631e-03  3.2738e-03  0:08:44 1707
   294  6.9614e-03  2.0117e-03  1.1625e-02  2.9557e-01  6.9554e-03  8.3766e-03  3.2661e-03  0:06:59 1706
   295  6.7299e-03  2.0311e-03  1.1589e-02  3.0721e-01  6.7237e-03  8.3657e-03  3.2792e-03  0:05:35 1705
   296  6.5212e-03  2.0472e-03  1.1552e-02  3.1755e-01  6.5146e-03  8.3510e-03  3.2791e-03  0:04:28 1704
   297  6.3301e-03  2.0650e-03  1.1512e-02  3.2833e-01  6.3230e-03  8.3601e-03  3.2857e-03  0:09:15 1703

  iter  continuity  x-velocity  y-velocity  z-velocity      energy           k       omega     time/iter
   298  6.1601e-03  2.0817e-03  1.1472e-02  3.3856e-01  6.1525e-03  8.3918e-03  3.2980e-03  0:07:24 1702
   299  6.0207e-03  2.0978e-03  1.1435e-02  3.4770e-01  6.0126e-03  8.3738e-03  3.2981e-03  0:05:55 1701
   300  5.9163e-03  2.1168e-03  1.1399e-02  3.5595e-01  5.9077e-03  8.3771e-03  3.2981e-03  0:04:44 1700
   301  5.8510e-03  2.1372e-03  1.1360e-02  3.6367e-01  5.8418e-03  8.3942e-03  3.2932e-03  0:09:27 1699
   302  5.8183e-03  2.1568e-03  1.1316e-02  3.7046e-01  5.8087e-03  8.3989e-03  3.3005e-03  0:07:33 1698
   303  5.8005e-03  2.1774e-03  1.1268e-02  3.7635e-01  5.7905e-03  8.4000e-03  3.2989e-03  0:06:02 1697
   304  5.8184e-03  2.2005e-03  1.1215e-02  3.8132e-01  5.8079e-03  8.3729e-03  3.3033e-03  0:04:50 1696
   305  5.8266e-03  2.2261e-03  1.1160e-02  3.8452e-01  5.8157e-03  8.4050e-03  3.3040e-03  0:09:31 1695
   306  5.8855e-03  2.2537e-03  1.1110e-02  3.8700e-01  5.8743e-03  8.4018e-03  3.3082e-03  0:07:36 1694
   307  5.9767e-03  2.2784e-03  1.1056e-02  3.8926e-01  5.9651e-03  8.3881e-03  3.3155e-03  0:06:05 1693
   308  6.1132e-03  2.3007e-03  1.0997e-02  3.9210e-01  6.1014e-03  8.4068e-03  3.3098e-03  0:04:52 1692

  iter  continuity  x-velocity  y-velocity  z-velocity      energy           k       omega     time/iter
   309  6.2357e-03  2.3245e-03  1.0956e-02  3.9804e-01  6.2237e-03  8.4332e-03  3.3153e-03  0:09:31 1691
   310  6.3532e-03  2.3466e-03  1.0921e-02  4.0780e-01  6.3411e-03  8.4403e-03  3.3279e-03  0:07:37 1690
   311  6.5279e-03  2.3676e-03  1.0893e-02  3.9791e-01  6.5156e-03  8.4635e-03  3.3164e-03  0:06:05 1689
   312  6.7335e-03  2.3908e-03  1.0877e-02  3.8602e-01  6.7212e-03  8.4807e-03  3.3242e-03  0:04:52 1688
   313  6.9876e-03  2.4156e-03  1.0870e-02  3.7485e-01  6.9754e-03  8.4949e-03  3.3510e-03  0:09:31 1687
   314  7.2554e-03  2.4397e-03  1.0847e-02  3.6467e-01  7.2434e-03  8.4756e-03  3.3897e-03  0:07:36 1686
   315  7.4924e-03  2.4637e-03  1.0825e-02  3.5467e-01  7.4806e-03  8.4837e-03  3.4069e-03  0:06:05 1685
   316  7.7201e-03  2.4926e-03  1.0815e-02  3.4703e-01  7.7085e-03  8.5389e-03  3.4132e-03  0:04:52 1684
   317  7.9629e-03  2.5199e-03  1.0821e-02  3.3925e-01  7.9516e-03  8.5608e-03  3.4081e-03  0:09:30 1683
   318  8.1879e-03  2.5458e-03  1.0820e-02  3.3137e-01  8.1769e-03  8.5627e-03  3.4154e-03  0:07:36 1682
   319  8.3896e-03  2.5647e-03  1.0810e-02  3.2320e-01  8.3789e-03  8.5996e-03  3.4132e-03  0:06:04 1681

  iter  continuity  x-velocity  y-velocity  z-velocity      energy           k       omega     time/iter
   320  8.6138e-03  2.5796e-03  1.0813e-02  3.1710e-01  8.6033e-03  8.6192e-03  3.4157e-03  0:04:51 1680
   321  8.8341e-03  2.5921e-03  1.0833e-02  3.1033e-01  8.8239e-03  8.6495e-03  3.4240e-03  0:03:53 1679
   322  9.0327e-03  2.5994e-03  1.0840e-02  3.0510e-01  9.0227e-03  8.6579e-03  3.4163e-03  0:08:42 1678
   323  9.2234e-03  2.6072e-03  1.0847e-02  3.0082e-01  9.2135e-03  8.6744e-03  3.4087e-03  0:06:57 1677
   324  9.3643e-03  2.6170e-03  1.0870e-02  2.9505e-01  9.3545e-03  8.6616e-03  3.4031e-03  0:05:34 1676
   325  9.4588e-03  2.6221e-03  1.0881e-02  2.8915e-01  9.4492e-03  8.6760e-03  3.4023e-03  0:04:27 1675
   326  9.5288e-03  2.6251e-03  1.0892e-02  2.8298e-01  9.5192e-03  8.7066e-03  3.3897e-03  0:09:08 1674
   327  9.5608e-03  2.6224e-03  1.0916e-02  2.7877e-01  9.5512e-03  8.7188e-03  3.3808e-03  0:07:18 1673
   328  9.5321e-03  2.6175e-03  1.0944e-02  2.7462e-01  9.5225e-03  8.7061e-03  3.3593e-03  0:05:50 1672
   329  9.4836e-03  2.6088e-03  1.0976e-02  2.7129e-01  9.4738e-03  8.7273e-03  3.3398e-03  0:04:40 1671
   330  9.3906e-03  2.5948e-03  1.1010e-02  2.6679e-01  9.3807e-03  8.7329e-03  3.3282e-03  0:09:18 1670

  iter  continuity  x-velocity  y-velocity  z-velocity      energy           k       omega     time/iter
   331  9.3062e-03  2.5804e-03  1.1049e-02  2.6212e-01  9.2962e-03  8.7522e-03  3.3152e-03  0:07:26 1669
   332  9.1614e-03  2.5651e-03  1.1095e-02  2.5743e-01  9.1511e-03  8.7429e-03  3.2814e-03  0:05:57 1668
   333  8.9886e-03  2.5485e-03  1.1145e-02  2.5384e-01  8.9780e-03  8.7354e-03  3.2575e-03  0:04:45 1667
   334  8.8102e-03  2.5341e-03  1.1195e-02  2.5134e-01  8.7994e-03  8.7024e-03  3.2421e-03  0:03:48 1666
   335  8.6156e-03  2.5211e-03  1.1250e-02  2.4906e-01  8.6046e-03  8.6889e-03  3.2303e-03  0:08:35 1665
   336  8.3981e-03  2.5100e-03  1.1304e-02  2.4832e-01  8.3869e-03  8.7164e-03  3.2134e-03  0:06:52 1664
   337  8.1597e-03  2.4990e-03  1.1358e-02  2.4758e-01  8.1484e-03  8.7210e-03  3.2044e-03  0:05:29 1663
   338  7.9236e-03  2.4891e-03  1.1411e-02  2.4783e-01  7.9122e-03  8.7385e-03  3.1836e-03  0:04:23 1662
   339  7.6962e-03  2.4784e-03  1.1466e-02  2.4794e-01  7.6849e-03  8.7476e-03  3.1728e-03  0:09:03 1661
   340  7.4737e-03  2.4657e-03  1.1525e-02  2.4802e-01  7.4624e-03  8.7761e-03  3.1631e-03  0:07:14 1660
   341  7.2509e-03  2.4507e-03  1.1582e-02  2.4829e-01  7.2396e-03  8.7817e-03  3.1596e-03  0:05:47 1659

  iter  continuity  x-velocity  y-velocity  z-velocity      energy           k       omega     time/iter
   342  7.0582e-03  2.4361e-03  1.1643e-02  2.4953e-01  7.0470e-03  8.8008e-03  3.1580e-03  0:04:37 1658
   343  6.8802e-03  2.4247e-03  1.1706e-02  2.5170e-01  6.8691e-03  8.8154e-03  3.1551e-03  0:09:13 1657
   344  6.7109e-03  2.4134e-03  1.1768e-02  2.5513e-01  6.6999e-03  8.8087e-03  3.1534e-03  0:07:22 1656
   345  6.5297e-03  2.3988e-03  1.1828e-02  2.5918e-01  6.5189e-03  8.7946e-03  3.1482e-03  0:05:54 1655
   346  6.3413e-03  2.3828e-03  1.1887e-02  2.6542e-01  6.3309e-03  8.8076e-03  3.1438e-03  0:04:43 1654
   347  6.1466e-03  2.3654e-03  1.1943e-02  2.7180e-01  6.1364e-03  8.8229e-03  3.1409e-03  0:09:17 1653
   348  5.9465e-03  2.3465e-03  1.1998e-02  2.7687e-01  5.9365e-03  8.8551e-03  3.1336e-03  0:07:25 1652
   349  5.7448e-03  2.3272e-03  1.2050e-02  2.8325e-01  5.7350e-03  8.8888e-03  3.1299e-03  0:05:56 1651
   350  5.5514e-03  2.3083e-03  1.2099e-02  2.8909e-01  5.5418e-03  8.9299e-03  3.1322e-03  0:04:44 1650
   351  5.3902e-03  2.2890e-03  1.2143e-02  2.9721e-01  5.3807e-03  8.9631e-03  3.1357e-03  0:09:17 1649
   352  5.2544e-03  2.2780e-03  1.2182e-02  3.0355e-01  5.2452e-03  8.9687e-03  3.1303e-03  0:07:26 1648

  iter  continuity  x-velocity  y-velocity  z-velocity      energy           k       omega     time/iter
   353  5.1262e-03  2.2702e-03  1.2216e-02  3.0665e-01  5.1172e-03  8.9718e-03  3.1200e-03  0:05:56 1647
   354  5.0000e-03  2.2591e-03  1.2243e-02  3.1044e-01  4.9914e-03  8.9759e-03  3.1126e-03  0:04:45 1646
   355  4.8743e-03  2.2439e-03  1.2265e-02  3.1319e-01  4.8659e-03  8.9792e-03  3.1116e-03  0:09:17 1645
   356  4.7676e-03  2.2270e-03  1.2283e-02  3.1471e-01  4.7594e-03  9.0023e-03  3.1224e-03  0:07:25 1644
   357  4.6613e-03  2.2089e-03  1.2299e-02  3.1491e-01  4.6530e-03  9.0392e-03  3.1356e-03  0:05:56 1643
   358  4.5561e-03  2.1902e-03  1.2311e-02  3.1461e-01  4.5477e-03  9.0771e-03  3.1527e-03  0:04:45 1642
   359  4.4757e-03  2.1698e-03  1.2318e-02  3.1733e-01  4.4670e-03  9.1199e-03  3.1782e-03  0:09:16 1641
   360  4.4199e-03  2.1550e-03  1.2319e-02  3.2192e-01  4.4109e-03  9.1556e-03  3.1991e-03  0:07:24 1640
   361  4.3832e-03  2.1461e-03  1.2316e-02  3.2463e-01  4.3739e-03  9.1719e-03  3.2109e-03  0:05:55 1639
   362  4.3506e-03  2.1419e-03  1.2306e-02  3.2905e-01  4.3410e-03  9.1883e-03  3.2264e-03  0:04:44 1638
   363  4.3392e-03  2.1418e-03  1.2292e-02  3.3228e-01  4.3294e-03  9.2003e-03  3.2378e-03  0:09:14 1637

  iter  continuity  x-velocity  y-velocity  z-velocity      energy           k       omega     time/iter
   364  4.3387e-03  2.1378e-03  1.2276e-02  3.3476e-01  4.3287e-03  9.2099e-03  3.2568e-03  0:07:23 1636
   365  4.3571e-03  2.1288e-03  1.2260e-02  3.3700e-01  4.3470e-03  9.2502e-03  3.2837e-03  0:05:54 1635
   366  4.4076e-03  2.1153e-03  1.2241e-02  3.3879e-01  4.3975e-03  9.2787e-03  3.3049e-03  0:04:43 1634
   367  4.5277e-03  2.0964e-03  1.2228e-02  3.4229e-01  4.5175e-03  9.2954e-03  3.3239e-03  0:09:13 1633
   368  4.7049e-03  2.0792e-03  1.2218e-02  3.4760e-01  4.6948e-03  9.3115e-03  3.3406e-03  0:07:22 1632
   369  4.8983e-03  2.0656e-03  1.2209e-02  3.5240e-01  4.8882e-03  9.3262e-03  3.3469e-03  0:05:54 1631
   370  5.0969e-03  2.0535e-03  1.2202e-02  3.5692e-01  5.0868e-03  9.3202e-03  3.3523e-03  0:04:43 1630
   371  5.3061e-03  2.0411e-03  1.2195e-02  3.6388e-01  5.2960e-03  9.2800e-03  3.3571e-03  0:09:12 1629
   372  5.5350e-03  2.0321e-03  1.2191e-02  3.6970e-01  5.5249e-03  9.2589e-03  3.3668e-03  0:07:21 1628
   373  5.7788e-03  2.0246e-03  1.2190e-02  3.7710e-01  5.7687e-03  9.2324e-03  3.3743e-03  0:05:53 1627
   374  6.0178e-03  2.0177e-03  1.2192e-02  3.8494e-01  6.0076e-03  9.2405e-03  3.3962e-03  0:04:42 1626

  iter  continuity  x-velocity  y-velocity  z-velocity      energy           k       omega     time/iter
   375  6.2465e-03  2.0092e-03  1.2196e-02  3.9310e-01  6.2363e-03  9.2485e-03  3.3981e-03  0:09:10 1625
   376  6.4652e-03  1.9988e-03  1.2202e-02  4.0289e-01  6.4550e-03  9.2416e-03  3.3820e-03  0:07:20 1624
   377  6.7430e-03  1.9882e-03  1.2211e-02  4.1484e-01  6.7327e-03  9.2193e-03  3.3828e-03  0:05:52 1623
   378  7.0134e-03  1.9878e-03  1.2222e-02  4.2789e-01  7.0030e-03  9.1946e-03  3.3870e-03  0:10:06 1622
   379  7.3394e-03  1.9913e-03  1.2235e-02  4.4187e-01  7.3288e-03  9.1653e-03  3.3804e-03  0:08:04 1621
   380  7.6900e-03  1.9963e-03  1.2251e-02  4.5800e-01  7.6792e-03  9.1299e-03  3.3730e-03  0:06:27 1620
   381  8.0935e-03  2.0031e-03  1.2272e-02  4.7640e-01  8.0824e-03  9.1027e-03  3.3712e-03  0:10:33 1619
   382  8.4825e-03  2.0053e-03  1.2294e-02  4.9764e-01  8.4712e-03  9.0820e-03  3.3661e-03  0:08:26 1618
   383  8.8740e-03  2.0117e-03  1.2318e-02  5.1820e-01  8.8624e-03  9.0780e-03  3.3575e-03  0:06:45 1617
   384  9.2390e-03  2.0207e-03  1.2343e-02  5.3991e-01  9.2271e-03  9.0813e-03  3.3593e-03  0:05:24 1616
   385  9.5697e-03  2.0248e-03  1.2371e-02  5.6337e-01  9.5577e-03  9.0571e-03  3.3504e-03  0:09:42 1615

  iter  continuity  x-velocity  y-velocity  z-velocity      energy           k       omega     time/iter
   386  9.8641e-03  2.0226e-03  1.2399e-02  5.8581e-01  9.8519e-03  9.0338e-03  3.3422e-03  0:07:45 1614
   387  1.0109e-02  2.0240e-03  1.2424e-02  6.0725e-01  1.0097e-02  9.0047e-03  3.3299e-03  0:06:12 1613
   388  1.0290e-02  2.0272e-03  1.2446e-02  6.2803e-01  1.0278e-02  8.9745e-03  3.3005e-03  0:04:57 1612
   389  1.0424e-02  2.0284e-03  1.2466e-02  6.4855e-01  1.0412e-02  8.9314e-03  3.2710e-03  0:09:20 1611
   390  1.0535e-02  2.0279e-03  1.2486e-02  6.6824e-01  1.0522e-02  8.8687e-03  3.2504e-03  0:07:28 1610
   391  1.0629e-02  2.0256e-03  1.2504e-02  6.8694e-01  1.0616e-02  8.8392e-03  3.2348e-03  0:05:58 1609
   392  1.0705e-02  2.0242e-03  1.2522e-02  7.0537e-01  1.0692e-02  8.8444e-03  3.2231e-03  0:04:46 1608
   393  1.0756e-02  2.0244e-03  1.2536e-02  7.2199e-01  1.0742e-02  8.8368e-03  3.2219e-03  0:09:10 1607
   394  1.0783e-02  2.0260e-03  1.2547e-02  7.3667e-01  1.0770e-02  8.8285e-03  3.2088e-03  0:07:20 1606
   395  1.0785e-02  2.0217e-03  1.2560e-02  7.4972e-01  1.0771e-02  8.8298e-03  3.1948e-03  0:05:52 1605
   396  1.0790e-02  2.0116e-03  1.2574e-02  7.6170e-01  1.0776e-02  8.8086e-03  3.1652e-03  0:04:41 1604

  iter  continuity  x-velocity  y-velocity  z-velocity      energy           k       omega     time/iter
   397  1.0775e-02  2.0063e-03  1.2587e-02  7.7080e-01  1.0761e-02  8.8047e-03  3.1444e-03  0:09:05 1603
   398  1.0744e-02  2.0029e-03  1.2600e-02  7.7799e-01  1.0730e-02  8.7680e-03  3.1195e-03  0:07:16 1602
   399  1.0700e-02  1.9992e-03  1.2613e-02  7.8388e-01  1.0685e-02  8.7362e-03  3.0944e-03  0:05:49 1601
   400  1.0648e-02  1.9952e-03  1.2625e-02  7.8848e-01  1.0634e-02  8.7211e-03  3.0648e-03  0:04:39 1600
   401  1.0580e-02  1.9880e-03  1.2635e-02  7.9156e-01  1.0566e-02  8.7082e-03  3.0371e-03  0:09:03 1599
   402  1.0500e-02  1.9810e-03  1.2645e-02  7.9211e-01  1.0485e-02  8.7116e-03  3.0085e-03  0:07:14 1598
   403  1.0398e-02  1.9748e-03  1.2654e-02  7.8935e-01  1.0384e-02  8.7274e-03  2.9835e-03  0:05:47 1597
   404  1.0281e-02  1.9694e-03  1.2660e-02  7.8320e-01  1.0267e-02  8.7248e-03  2.9682e-03  0:04:37 1596
   405  1.0150e-02  1.9612e-03  1.2666e-02  7.7562e-01  1.0136e-02  8.6861e-03  2.9473e-03  0:09:01 1595
   406  1.0010e-02  1.9467e-03  1.2672e-02  7.6662e-01  9.9962e-03  8.6703e-03  2.9267e-03  0:07:12 1594
   407  9.8715e-03  1.9336e-03  1.2678e-02  7.5514e-01  9.8579e-03  8.6464e-03  2.9078e-03  0:05:46 1593

  iter  continuity  x-velocity  y-velocity  z-velocity      energy           k       omega     time/iter
   408  9.7113e-03  1.9242e-03  1.2682e-02  7.4152e-01  9.6979e-03  8.6412e-03  2.8851e-03  0:04:36 1592
   409  9.5217e-03  1.9162e-03  1.2683e-02  7.2690e-01  9.5086e-03  8.6457e-03  2.8703e-03  0:08:59 1591
   410  9.3205e-03  1.9095e-03  1.2683e-02  7.1102e-01  9.3076e-03  8.6411e-03  2.8640e-03  0:07:11 1590
   411  9.1191e-03  1.9045e-03  1.2680e-02  6.9414e-01  9.1064e-03  8.6411e-03  2.8502e-03  0:05:45 1589
   412  8.9442e-03  1.9011e-03  1.2672e-02  6.7871e-01  8.9317e-03  8.6587e-03  2.8371e-03  0:04:36 1588
   413  8.7768e-03  1.8964e-03  1.2657e-02  6.6223e-01  8.7644e-03  8.6680e-03  2.8261e-03  0:08:58 1587
   414  8.5905e-03  1.8948e-03  1.2637e-02  6.4364e-01  8.5782e-03  8.6740e-03  2.8254e-03  0:07:10 1586
   415  8.3510e-03  1.8946e-03  1.2616e-02  6.2537e-01  8.3388e-03  8.6719e-03  2.8272e-03  0:05:44 1585
   416  8.1365e-03  1.8958e-03  1.2594e-02  6.0988e-01  8.1245e-03  8.6775e-03  2.8237e-03  0:04:35 1584
   417  7.9719e-03  1.8968e-03  1.2570e-02  5.9679e-01  7.9600e-03  8.6777e-03  2.8105e-03  0:08:56 1583
   418  7.8757e-03  1.9018e-03  1.2547e-02  5.8479e-01  7.8639e-03  8.6774e-03  2.8055e-03  0:07:09 1582

  iter  continuity  x-velocity  y-velocity  z-velocity      energy           k       omega     time/iter
   419  7.8264e-03  1.9123e-03  1.2519e-02  5.7525e-01  7.8145e-03  8.6959e-03  2.8062e-03  0:05:43 1581
   420  7.7563e-03  1.9259e-03  1.2488e-02  5.6827e-01  7.7445e-03  8.6979e-03  2.8064e-03  0:09:50 1580
   421  7.6056e-03  1.9416e-03  1.2453e-02  5.6284e-01  7.5938e-03  8.7240e-03  2.8021e-03  0:07:52 1579
   422  7.3308e-03  1.9589e-03  1.2412e-02  5.5902e-01  7.3192e-03  8.7533e-03  2.7945e-03  0:06:17 1578
   423  6.9509e-03  1.9764e-03  1.2369e-02  5.5882e-01  6.9395e-03  8.7740e-03  2.7910e-03  0:05:02 1577
   424  6.4916e-03  1.9928e-03  1.2320e-02  5.6142e-01  6.4805e-03  8.7894e-03  2.7936e-03  0:09:16 1576
   425  6.0136e-03  2.0073e-03  1.2267e-02  5.6437e-01  6.0027e-03  8.8206e-03  2.7885e-03  0:07:25 1575
   426  5.5698e-03  2.0203e-03  1.2215e-02  5.6664e-01  5.5590e-03  8.8503e-03  2.7800e-03  0:05:56 1574
   427  5.1853e-03  2.0302e-03  1.2162e-02  5.7242e-01  5.1746e-03  8.8807e-03  2.7774e-03  0:09:59 1573
   428  4.8906e-03  2.0375e-03  1.2110e-02  5.8020e-01  4.8800e-03  8.9057e-03  2.7827e-03  0:07:59 1572
   429  4.6995e-03  2.0415e-03  1.2061e-02  5.8870e-01  4.6888e-03  8.9347e-03  2.7896e-03  0:06:23 1571

  iter  continuity  x-velocity  y-velocity  z-velocity      energy           k       omega     time/iter
   430  4.6277e-03  2.0448e-03  1.2006e-02  5.9826e-01  4.6170e-03  8.9598e-03  2.7895e-03  0:05:06 1570
   431  4.6008e-03  2.0448e-03  1.1940e-02  6.0817e-01  4.5902e-03  8.9754e-03  2.7868e-03  0:09:18 1569
   432  4.5706e-03  2.0441e-03  1.1880e-02  6.1999e-01  4.5601e-03  9.0083e-03  2.7852e-03  0:07:26 1568
   433  4.5112e-03  2.0430e-03  1.1821e-02  6.2953e-01  4.5009e-03  9.0313e-03  2.7784e-03  0:05:57 1567
   434  4.4178e-03  2.0417e-03  1.1763e-02  6.3643e-01  4.4076e-03  9.0662e-03  2.7845e-03  0:04:45 1566
   435  4.3000e-03  2.0401e-03  1.1704e-02  6.4395e-01  4.2900e-03  9.0984e-03  2.7848e-03  0:09:01 1565
   436  4.2072e-03  2.0389e-03  1.1639e-02  6.5226e-01  4.1974e-03  9.1172e-03  2.7793e-03  0:07:13 1564
   437  4.1487e-03  2.0365e-03  1.1574e-02  6.5901e-01  4.1389e-03  9.1479e-03  2.7713e-03  0:05:46 1563
   438  4.1228e-03  2.0353e-03  1.1515e-02  6.6673e-01  4.1131e-03  9.1894e-03  2.7835e-03  0:09:49 1562
   439  4.1278e-03  2.0362e-03  1.1462e-02  6.7230e-01  4.1184e-03  9.2126e-03  2.7914e-03  0:07:51 1561
   440  4.0963e-03  2.0346e-03  1.1414e-02  6.7665e-01  4.0872e-03  9.2249e-03  2.7987e-03  0:11:28 1560

  iter  continuity  x-velocity  y-velocity  z-velocity      energy           k       omega     time/iter
   441  4.0471e-03  2.0306e-03  1.1376e-02  6.8142e-01  4.0382e-03  9.2411e-03  2.8032e-03  0:09:10 1559
   442  4.0427e-03  2.0238e-03  1.1343e-02  6.8424e-01  4.0342e-03  9.2663e-03  2.8144e-03  0:07:20 1558
   443  4.0918e-03  2.0189e-03  1.1315e-02  6.8721e-01  4.0837e-03  9.2822e-03  2.8267e-03  0:05:52 1557
   444  4.1877e-03  2.0149e-03  1.1289e-02  6.8801e-01  4.1800e-03  9.3195e-03  2.8306e-03  0:09:52 1556
   445  4.2936e-03  2.0102e-03  1.1260e-02  6.9025e-01  4.2861e-03  9.3606e-03  2.8386e-03  0:07:54 1555
   446  4.4431e-03  2.0071e-03  1.1228e-02  6.8945e-01  4.4358e-03  9.3978e-03  2.8506e-03  0:06:19 1554
   447  4.5490e-03  2.0051e-03  1.1194e-02  6.8958e-01  4.5419e-03  9.4197e-03  2.8627e-03  0:10:13 1553
   448  4.6645e-03  2.0064e-03  1.1155e-02  6.8858e-01  4.6575e-03  9.4260e-03  2.8794e-03  0:08:10 1552
   449  4.8084e-03  2.0082e-03  1.1114e-02  7.0668e-01  4.8014e-03  9.4603e-03  2.8895e-03  0:06:32 1551
   450  4.9610e-03  2.0117e-03  1.1081e-02  7.0528e-01  4.9540e-03  9.4993e-03  2.8983e-03  0:10:23 1550
   451  5.0655e-03  2.0127e-03  1.1061e-02  6.9511e-01  5.0584e-03  9.5350e-03  2.9167e-03  0:08:18 1549

  iter  continuity  x-velocity  y-velocity  z-velocity      energy           k       omega     time/iter
   452  5.1634e-03  2.0143e-03  1.1052e-02  6.8622e-01  5.1562e-03  9.5590e-03  2.9272e-03  0:06:38 1548
   453  5.2601e-03  2.0157e-03  1.1043e-02  6.8292e-01  5.2528e-03  9.5595e-03  2.9276e-03  0:05:19 1547
   454  5.3286e-03  2.0151e-03  1.1039e-02  6.7571e-01  5.3213e-03  9.5779e-03  2.9202e-03  0:09:24 1546
   455  5.4279e-03  2.0112e-03  1.1039e-02  6.7531e-01  5.4205e-03  9.5820e-03  2.9194e-03  0:07:31 1545
   456  5.5181e-03  2.0047e-03  1.1033e-02  6.7266e-01  5.5105e-03  9.6025e-03  2.9290e-03  0:06:00 1544
   457  5.6012e-03  1.9986e-03  1.1029e-02  6.7940e-01  5.5936e-03  9.6300e-03  2.9388e-03  0:09:57 1543
   458  5.6537e-03  1.9923e-03  1.1016e-02  6.9006e-01  5.6460e-03  9.6633e-03  2.9397e-03  0:07:57 1542
   459  5.7001e-03  1.9875e-03  1.0994e-02  6.9027e-01  5.6923e-03  9.6871e-03  2.9479e-03  0:06:21 1541
   460  5.7461e-03  1.9867e-03  1.0967e-02  6.8785e-01  5.7382e-03  9.7017e-03  2.9637e-03  0:10:13 1540
   461  5.7960e-03  1.9874e-03  1.0942e-02  6.8489e-01  5.7879e-03  9.7257e-03  2.9689e-03  0:08:10 1539
   462  5.8419e-03  1.9885e-03  1.0918e-02  6.8588e-01  5.8336e-03  9.7474e-03  2.9707e-03  0:06:32 1538

  iter  continuity  x-velocity  y-velocity  z-velocity      energy           k       omega     time/iter
   463  5.8848e-03  1.9903e-03  1.0903e-02  6.9100e-01  5.8763e-03  9.7670e-03  2.9754e-03  0:10:21 1537
   464  5.9115e-03  1.9939e-03  1.0896e-02  6.9561e-01  5.9028e-03  9.7569e-03  2.9836e-03  0:08:16 1536
   465  5.9173e-03  1.9976e-03  1.0903e-02  7.0329e-01  5.9084e-03  9.7647e-03  2.9809e-03  0:06:37 1535
   466  5.9337e-03  2.0013e-03  1.0910e-02  7.1865e-01  5.9247e-03  9.7600e-03  2.9706e-03  0:10:24 1534
   467  5.9619e-03  2.0030e-03  1.0918e-02  7.1134e-01  5.9529e-03  9.7642e-03  2.9623e-03  0:08:19 1533
   468  5.9907e-03  2.0018e-03  1.0924e-02  7.0480e-01  5.9817e-03  9.7788e-03  2.9604e-03  0:06:39 1532
   469  6.0219e-03  1.9995e-03  1.0931e-02  7.0459e-01  6.0129e-03  9.7781e-03  2.9623e-03  0:05:19 1531
   470  6.0595e-03  1.9974e-03  1.0932e-02  7.0633e-01  6.0505e-03  9.7731e-03  2.9630e-03  0:09:21 1530
   471  6.0805e-03  1.9911e-03  1.0931e-02  7.1541e-01  6.0716e-03  9.7681e-03  2.9647e-03  0:07:28 1529
   472  6.1025e-03  1.9829e-03  1.0928e-02  7.2418e-01  6.0937e-03  9.7544e-03  2.9675e-03  0:05:59 1528
   473  6.1287e-03  1.9756e-03  1.0922e-02  7.3314e-01  6.1199e-03  9.7421e-03  2.9724e-03  0:09:52 1527

  iter  continuity  x-velocity  y-velocity  z-velocity      energy           k       omega     time/iter
   474  6.1416e-03  1.9706e-03  1.0915e-02  7.4164e-01  6.1329e-03  9.7406e-03  2.9767e-03  0:07:53 1526
   475  6.1400e-03  1.9691e-03  1.0909e-02  7.4842e-01  6.1313e-03  9.7379e-03  2.9786e-03  0:06:18 1525
   476  6.1227e-03  1.9694e-03  1.0908e-02  7.5123e-01  6.1141e-03  9.7257e-03  2.9800e-03  0:05:03 1524
   477  6.0868e-03  1.9729e-03  1.0914e-02  7.5607e-01  6.0784e-03  9.7100e-03  2.9765e-03  0:09:06 1523
   478  6.0434e-03  1.9783e-03  1.0927e-02  7.6062e-01  6.0351e-03  9.7116e-03  2.9689e-03  0:07:17 1522
   479  5.9807e-03  1.9828e-03  1.0939e-02  7.6632e-01  5.9725e-03  9.7077e-03  2.9657e-03  0:05:49 1521
   480  5.9119e-03  1.9851e-03  1.0951e-02  7.6241e-01  5.9038e-03  9.6781e-03  2.9602e-03  0:09:43 1520
   481  5.8341e-03  1.9833e-03  1.0968e-02  7.6557e-01  5.8262e-03  9.6517e-03  2.9540e-03  0:07:46 1519
   482  5.7474e-03  1.9798e-03  1.0992e-02  7.6514e-01  5.7396e-03  9.6146e-03  2.9485e-03  0:06:13 1518
   483  5.6454e-03  1.9749e-03  1.1013e-02  7.8049e-01  5.6378e-03  9.5960e-03  2.9417e-03  0:04:58 1517
   484  5.5457e-03  1.9710e-03  1.1030e-02  7.8212e-01  5.5382e-03  9.5727e-03  2.9285e-03  0:09:01 1516

  iter  continuity  x-velocity  y-velocity  z-velocity      energy           k       omega     time/iter
   485  5.4483e-03  1.9691e-03  1.1043e-02  7.8358e-01  5.4409e-03  9.5595e-03  2.9192e-03  0:07:13 1515
   486  5.3470e-03  1.9680e-03  1.1052e-02  7.8883e-01  5.3397e-03  9.5320e-03  2.9113e-03  0:05:46 1514
   487  5.2499e-03  1.9664e-03  1.1057e-02  7.9289e-01  5.2427e-03  9.5107e-03  2.9079e-03  0:09:39 1513
   488  5.1459e-03  1.9632e-03  1.1058e-02  7.9777e-01  5.1388e-03  9.4860e-03  2.9000e-03  0:07:43 1512
   489  5.0435e-03  1.9586e-03  1.1059e-02  8.0069e-01  5.0364e-03  9.4623e-03  2.8977e-03  0:06:10 1511
   490  4.9409e-03  1.9534e-03  1.1063e-02  8.0415e-01  4.9338e-03  9.4496e-03  2.8968e-03  0:09:58 1510
   491  4.8498e-03  1.9477e-03  1.1067e-02  8.0762e-01  4.8427e-03  9.4295e-03  2.8930e-03  0:07:58 1509
   492  4.7597e-03  1.9424e-03  1.1074e-02  8.1115e-01  4.7527e-03  9.4127e-03  2.8872e-03  0:06:22 1508
   493  4.6635e-03  1.9381e-03  1.1082e-02  8.1413e-01  4.6565e-03  9.3768e-03  2.8815e-03  0:05:06 1507
   494  4.5599e-03  1.9340e-03  1.1090e-02  8.1002e-01  4.5529e-03  9.3471e-03  2.8815e-03  0:09:05 1506
   495  4.4461e-03  1.9311e-03  1.1100e-02  8.0871e-01  4.4391e-03  9.3130e-03  2.8762e-03  0:07:16 1505

  iter  continuity  x-velocity  y-velocity  z-velocity      energy           k       omega     time/iter
   496  4.3248e-03  1.9292e-03  1.1108e-02  8.1018e-01  4.3178e-03  9.2884e-03  2.8649e-03  0:10:49 1504
   497  4.2039e-03  1.9267e-03  1.1115e-02  8.1308e-01  4.1970e-03  9.2614e-03  2.8580e-03  0:08:39 1503
   498  4.0771e-03  1.9240e-03  1.1115e-02  8.1765e-01  4.0701e-03  9.2287e-03  2.8552e-03  0:06:55 1502
   499  3.9412e-03  1.9257e-03  1.1114e-02  8.2161e-01  3.9343e-03  9.2146e-03  2.8445e-03  0:05:32 1501
   500  3.8255e-03  1.9288e-03  1.1110e-02  8.2776e-01  3.8186e-03  9.2002e-03  2.8398e-03  0:09:25 1500
   501  3.7320e-03  1.9326e-03  1.1102e-02  8.3322e-01  3.7252e-03  9.1849e-03  2.8374e-03  0:07:32 1499
   502  3.6467e-03  1.9338e-03  1.1091e-02  8.3537e-01  3.6399e-03  9.1712e-03  2.8390e-03  0:06:01 1498
   503  3.5758e-03  1.9310e-03  1.1079e-02  8.3485e-01  3.5689e-03  9.1682e-03  2.8490e-03  0:09:48 1497
   504  3.5227e-03  1.9258e-03  1.1064e-02  8.3307e-01  3.5158e-03  9.1584e-03  2.8502e-03  0:07:50 1496
   505  3.4843e-03  1.9194e-03  1.1050e-02  8.2920e-01  3.4773e-03  9.1442e-03  2.8475e-03  0:06:16 1495
   506  3.4594e-03  1.9112e-03  1.1039e-02  8.2707e-01  3.4522e-03  9.1240e-03  2.8526e-03  0:05:01 1494

  iter  continuity  x-velocity  y-velocity  z-velocity      energy           k       omega     time/iter
   507  3.4455e-03  1.9031e-03  1.1025e-02  8.2509e-01  3.4382e-03  9.1137e-03  2.8621e-03  0:08:59 1493
   508  3.4345e-03  1.8952e-03  1.1013e-02  8.2297e-01  3.4271e-03  9.1134e-03  2.8749e-03  0:07:11 1492
   509  3.4200e-03  1.8872e-03  1.1001e-02  8.2362e-01  3.4124e-03  9.1141e-03  2.8932e-03  0:05:44 1491
   510  3.4098e-03  1.8794e-03  1.0983e-02  8.2348e-01  3.4021e-03  9.1005e-03  2.9042e-03  0:09:33 1490
   511  3.4206e-03  1.8746e-03  1.0961e-02  8.2496e-01  3.4129e-03  9.0889e-03  2.9096e-03  0:07:38 1489
   512  3.4425e-03  1.8718e-03  1.0938e-02  8.3059e-01  3.4347e-03  9.0630e-03  2.9122e-03  0:06:06 1488
   513  3.4633e-03  1.8724e-03  1.0911e-02  8.3710e-01  3.4554e-03  9.0584e-03  2.9243e-03  0:09:50 1487
   514  3.5114e-03  1.8782e-03  1.0882e-02  8.4030e-01  3.5036e-03  9.0526e-03  2.9330e-03  0:07:52 1486
   515  3.5931e-03  1.8832e-03  1.0851e-02  8.4035e-01  3.5853e-03  9.0304e-03  2.9371e-03  0:06:17 1485
   516  3.6850e-03  1.8863e-03  1.0819e-02  8.3522e-01  3.6773e-03  9.0290e-03  2.9418e-03  0:09:58 1484
   517  3.7856e-03  1.8874e-03  1.0793e-02  8.2933e-01  3.7779e-03  9.0156e-03  2.9465e-03  0:07:58 1483

  iter  continuity  x-velocity  y-velocity  z-velocity      energy           k       omega     time/iter
   518  3.8965e-03  1.8857e-03  1.0773e-02  8.2298e-01  3.8888e-03  9.0109e-03  2.9561e-03  0:06:22 1482
   519  4.0144e-03  1.8787e-03  1.0757e-02  8.1815e-01  4.0066e-03  9.0117e-03  2.9688e-03  0:05:06 1481
   520  4.1489e-03  1.8666e-03  1.0748e-02  8.1443e-01  4.1411e-03  9.0254e-03  2.9880e-03  0:09:00 1480
   521  4.2864e-03  1.8530e-03  1.0745e-02  8.0984e-01  4.2786e-03  9.0302e-03  3.0043e-03  0:07:12 1479
   522  4.4239e-03  1.8399e-03  1.0740e-02  8.0762e-01  4.4160e-03  9.0321e-03  3.0160e-03  0:05:45 1478
   523  4.5589e-03  1.8289e-03  1.0732e-02  8.0793e-01  4.5510e-03  9.0280e-03  3.0240e-03  0:09:32 1477
   524  4.6928e-03  1.8192e-03  1.0726e-02  8.0948e-01  4.6848e-03  9.0285e-03  3.0322e-03  0:07:37 1476
   525  4.8186e-03  1.8056e-03  1.0719e-02  8.1409e-01  4.8107e-03  9.0098e-03  3.0340e-03  0:06:05 1475
   526  4.9570e-03  1.7935e-03  1.0711e-02  8.1948e-01  4.9490e-03  8.9811e-03  3.0370e-03  0:09:47 1474
   527  5.1244e-03  1.7854e-03  1.0705e-02  8.2103e-01  5.1165e-03  8.9605e-03  3.0350e-03  0:07:49 1473
   528  5.2881e-03  1.7856e-03  1.0703e-02  8.2082e-01  5.2803e-03  8.9396e-03  3.0409e-03  0:06:15 1472

  iter  continuity  x-velocity  y-velocity  z-velocity      energy           k       omega     time/iter
   529  5.4534e-03  1.7883e-03  1.0702e-02  8.1691e-01  5.4455e-03  8.9368e-03  3.0478e-03  0:05:00 1471
   530  5.6234e-03  1.7881e-03  1.0708e-02  8.1220e-01  5.6155e-03  8.9327e-03  3.0605e-03  0:08:54 1470
   531  5.7932e-03  1.7833e-03  1.0717e-02  8.0793e-01  5.7852e-03  8.9470e-03  3.0776e-03  0:07:07 1469
   532  5.9626e-03  1.7752e-03  1.0733e-02  8.0554e-01  5.9544e-03  8.9656e-03  3.0846e-03  0:05:41 1468
   533  6.1269e-03  1.7638e-03  1.0760e-02  8.0368e-01  6.1186e-03  8.9832e-03  3.0898e-03  0:09:26 1467
   534  6.2846e-03  1.7478e-03  1.0795e-02  8.0484e-01  6.2761e-03  8.9883e-03  3.0926e-03  0:07:33 1466
   535  6.4310e-03  1.7329e-03  1.0830e-02  8.0944e-01  6.4223e-03  8.9775e-03  3.0919e-03  0:06:02 1465
   536  6.5648e-03  1.7217e-03  1.0865e-02  8.1317e-01  6.5560e-03  8.9710e-03  3.0879e-03  0:09:42 1464
   537  6.6893e-03  1.7128e-03  1.0905e-02  8.2274e-01  6.6804e-03  8.9699e-03  3.0757e-03  0:07:45 1463
   538  6.8030e-03  1.7045e-03  1.0945e-02  8.3565e-01  6.7939e-03  8.9575e-03  3.0708e-03  0:06:12 1462
   539  6.9215e-03  1.6960e-03  1.0986e-02  8.4619e-01  6.9124e-03  8.9374e-03  3.0648e-03  0:09:50 1461

  iter  continuity  x-velocity  y-velocity  z-velocity      energy           k       omega     time/iter
   540  7.0318e-03  1.6916e-03  1.1028e-02  8.5321e-01  7.0226e-03  8.9352e-03  3.0528e-03  0:07:51 1460
   541  7.1259e-03  1.6896e-03  1.1070e-02  8.5887e-01  7.1166e-03  8.9357e-03  3.0466e-03  0:06:17 1459
   542  7.2195e-03  1.6891e-03  1.1111e-02  8.6125e-01  7.2101e-03  8.9236e-03  3.0401e-03  0:05:01 1458
   543  7.3575e-03  1.6899e-03  1.1155e-02  8.6289e-01  7.3479e-03  8.9167e-03  3.0497e-03  0:08:52 1457
   544  7.4450e-03  1.6917e-03  1.1200e-02  8.6459e-01  7.4353e-03  8.9037e-03  3.0550e-03  0:07:05 1456
   545  7.5911e-03  1.6927e-03  1.1248e-02  8.6737e-01  7.5812e-03  8.8821e-03  3.0543e-03  0:05:40 1455
   546  7.6938e-03  1.6928e-03  1.1298e-02  8.6928e-01  7.6838e-03  8.8624e-03  3.0540e-03  0:09:23 1454
   547  7.7988e-03  1.6923e-03  1.1351e-02  8.7008e-01  7.7887e-03  8.8516e-03  3.0500e-03  0:07:30 1453
   548  7.8420e-03  1.6909e-03  1.1408e-02  8.7064e-01  7.8318e-03  8.8532e-03  3.0414e-03  0:06:00 1452
   549  7.8653e-03  1.6898e-03  1.1465e-02  8.7123e-01  7.8550e-03  8.8455e-03  3.0334e-03  0:09:38 1451
   550  7.8975e-03  1.6879e-03  1.1524e-02  8.7538e-01  7.8871e-03  8.8319e-03  3.0204e-03  0:07:42 1450

  iter  continuity  x-velocity  y-velocity  z-velocity      energy           k       omega     time/iter
   551  7.8851e-03  1.6839e-03  1.1582e-02  8.8102e-01  7.8748e-03  8.8260e-03  3.0135e-03  0:06:09 1449
   552  7.8456e-03  1.6815e-03  1.1636e-02  8.8651e-01  7.8353e-03  8.8445e-03  3.0138e-03  0:09:45 1448
   553  7.7835e-03  1.6785e-03  1.1687e-02  8.8940e-01  7.7733e-03  8.8625e-03  3.0102e-03  0:07:48 1447
   554  7.7235e-03  1.6722e-03  1.1733e-02  8.9088e-01  7.7133e-03  8.8732e-03  3.0099e-03  0:06:14 1446
   555  7.6175e-03  1.6647e-03  1.1774e-02  8.8840e-01  7.6075e-03  8.8770e-03  3.0017e-03  0:09:48 1445
   556  7.5135e-03  1.6579e-03  1.1812e-02  8.8587e-01  7.5036e-03  8.8601e-03  2.9898e-03  0:07:50 1444
   557  7.3942e-03  1.6517e-03  1.1846e-02  8.8217e-01  7.3844e-03  8.8328e-03  2.9787e-03  0:06:16 1443
   558  7.2641e-03  1.6466e-03  1.1878e-02  8.7858e-01  7.2544e-03  8.8073e-03  2.9728e-03  0:09:49 1442
   559  7.1110e-03  1.6428e-03  1.1908e-02  8.7412e-01  7.1015e-03  8.7833e-03  2.9705e-03  0:07:51 1441
   560  6.9241e-03  1.6384e-03  1.1935e-02  8.6623e-01  6.9146e-03  8.7598e-03  2.9741e-03  0:06:16 1440
   561  6.7101e-03  1.6333e-03  1.1958e-02  8.5944e-01  6.7007e-03  8.7266e-03  2.9762e-03  0:05:01 1439

  iter  continuity  x-velocity  y-velocity  z-velocity      energy           k       omega     time/iter
   562  6.4750e-03  1.6257e-03  1.1981e-02  8.5293e-01  6.4659e-03  8.7038e-03  2.9824e-03  0:08:48 1438
   563  6.2396e-03  1.6158e-03  1.1998e-02  8.4937e-01  6.2307e-03  8.6815e-03  2.9858e-03  0:07:02 1437
   564  5.9636e-03  1.6050e-03  1.2008e-02  8.4662e-01  5.9550e-03  8.6700e-03  2.9844e-03  0:05:37 1436
   565  5.6714e-03  1.5954e-03  1.2012e-02  8.4387e-01  5.6631e-03  8.6663e-03  2.9888e-03  0:09:17 1435
   566  5.3886e-03  1.5915e-03  1.2008e-02  8.4279e-01  5.3807e-03  8.6496e-03  2.9836e-03  0:07:25 1434
   567  5.0974e-03  1.5941e-03  1.1995e-02  8.4222e-01  5.0897e-03  8.6211e-03  2.9755e-03  0:05:56 1433
   568  4.8622e-03  1.6006e-03  1.1976e-02  8.4525e-01  4.8547e-03  8.5887e-03  2.9773e-03  0:09:31 1432
   569  4.6886e-03  1.6097e-03  1.1951e-02  8.5835e-01  4.6812e-03  8.5615e-03  2.9813e-03  0:07:36 1431
   570  4.5695e-03  1.6218e-03  1.1919e-02  8.5162e-01  4.5620e-03  8.5413e-03  2.9779e-03  0:06:05 1430
   571  4.4811e-03  1.6383e-03  1.1883e-02  8.5090e-01  4.4735e-03  8.5291e-03  2.9733e-03  0:09:37 1429
   572  4.4250e-03  1.6576e-03  1.1844e-02  8.4912e-01  4.4173e-03  8.5191e-03  2.9726e-03  0:07:42 1428

  iter  continuity  x-velocity  y-velocity  z-velocity      energy           k       omega     time/iter
   573  4.3784e-03  1.6786e-03  1.1806e-02  8.4593e-01  4.3705e-03  8.5102e-03  2.9664e-03  0:06:09 1427
   574  4.3488e-03  1.6964e-03  1.1769e-02  8.4228e-01  4.3408e-03  8.4944e-03  2.9595e-03  0:04:55 1426
   575  4.3647e-03  1.7133e-03  1.1732e-02  8.3880e-01  4.3566e-03  8.4747e-03  2.9618e-03  0:08:41 1425
   576  4.3947e-03  1.7351e-03  1.1691e-02  8.3384e-01  4.3864e-03  8.4677e-03  2.9578e-03  0:06:56 1424
   577  4.4391e-03  1.7563e-03  1.1633e-02  8.2868e-01  4.4306e-03  8.4644e-03  2.9594e-03  0:05:33 1423
   578  4.5097e-03  1.7781e-03  1.1566e-02  8.2480e-01  4.5009e-03  8.4590e-03  2.9545e-03  0:09:11 1422
   579  4.5954e-03  1.8065e-03  1.1498e-02  8.2597e-01  4.5865e-03  8.4506e-03  2.9525e-03  0:07:20 1421
   580  4.7317e-03  1.8371e-03  1.1428e-02  8.2862e-01  4.7226e-03  8.4512e-03  2.9615e-03  0:05:52 1420
   581  4.8724e-03  1.8672e-03  1.1352e-02  8.3286e-01  4.8631e-03  8.4611e-03  2.9622e-03  0:09:25 1419
   582  5.0022e-03  1.8945e-03  1.1276e-02  8.3488e-01  4.9926e-03  8.4670e-03  2.9633e-03  0:07:32 1418
   583  5.1318e-03  1.9181e-03  1.1205e-02  8.3714e-01  5.1220e-03  8.4645e-03  2.9562e-03  0:06:01 1417

  iter  continuity  x-velocity  y-velocity  z-velocity      energy           k       omega     time/iter
   584  5.2893e-03  1.9366e-03  1.1141e-02  8.4504e-01  5.2793e-03  8.4496e-03  2.9397e-03  0:04:49 1416
   585  5.4349e-03  1.9520e-03  1.1082e-02  8.5184e-01  5.4248e-03  8.4328e-03  2.9279e-03  0:08:34 1415
   586  5.5815e-03  1.9607e-03  1.1028e-02  8.5677e-01  5.5714e-03  8.4314e-03  2.9266e-03  0:06:51 1414
   587  5.6956e-03  1.9647e-03  1.0980e-02  8.5924e-01  5.6855e-03  8.4367e-03  2.9269e-03  0:05:28 1413
   588  5.8531e-03  1.9641e-03  1.0936e-02  8.6967e-01  5.8431e-03  8.4409e-03  2.9344e-03  0:09:05 1412
   589  6.0169e-03  1.9612e-03  1.0891e-02  8.7648e-01  6.0069e-03  8.4515e-03  2.9409e-03  0:07:16 1411
   590  6.0145e-03  1.9577e-03  1.0841e-02  8.7968e-01  6.0046e-03  8.4634e-03  2.9387e-03  0:05:48 1410
   591  6.0483e-03  1.9543e-03  1.0792e-02  8.8530e-01  6.0384e-03  8.4799e-03  2.9256e-03  0:09:20 1409
   592  6.1337e-03  1.9530e-03  1.0749e-02  8.9241e-01  6.1239e-03  8.4970e-03  2.9118e-03  0:07:28 1408
   593  6.2032e-03  1.9512e-03  1.0713e-02  9.0096e-01  6.1934e-03  8.5041e-03  2.9117e-03  0:05:58 1407
   594  6.2910e-03  1.9479e-03  1.0674e-02  9.0648e-01  6.2813e-03  8.5045e-03  2.9036e-03  0:09:27 1406

  iter  continuity  x-velocity  y-velocity  z-velocity      energy           k       omega     time/iter
   595  6.3790e-03  1.9405e-03  1.0637e-02  9.1199e-01  6.3693e-03  8.5159e-03  2.8928e-03  0:07:34 1405
   596  6.4335e-03  1.9292e-03  1.0614e-02  9.1708e-01  6.4238e-03  8.5225e-03  2.8815e-03  0:06:03 1404
   597  6.4652e-03  1.9139e-03  1.0596e-02  9.2666e-01  6.4556e-03  8.5202e-03  2.8690e-03  0:09:30 1403
   598  6.4607e-03  1.8991e-03  1.0581e-02  9.2950e-01  6.4510e-03  8.5147e-03  2.8468e-03  0:07:36 1402
   599  6.4586e-03  1.8827e-03  1.0580e-02  9.4115e-01  6.4491e-03  8.5217e-03  2.8260e-03  0:06:05 1401
   600  6.4431e-03  1.8639e-03  1.0580e-02  9.4408e-01  6.4337e-03  8.5258e-03  2.8155e-03  0:09:31 1400
   601  6.3979e-03  1.8423e-03  1.0580e-02  9.4905e-01  6.3887e-03  8.5282e-03  2.8020e-03  0:07:37 1399
   602  6.3207e-03  1.8163e-03  1.0578e-02  9.5570e-01  6.3116e-03  8.5254e-03  2.7860e-03  0:06:05 1398
   603  6.2138e-03  1.7851e-03  1.0576e-02  9.6716e-01  6.2048e-03  8.5142e-03  2.7783e-03  0:09:31 1397
   604  6.1318e-03  1.7554e-03  1.0577e-02  9.7233e-01  6.1230e-03  8.5109e-03  2.7650e-03  0:07:37 1396
   605  6.0468e-03  1.7247e-03  1.0580e-02  9.7461e-01  6.0382e-03  8.5191e-03  2.7476e-03  0:06:05 1395

  iter  continuity  x-velocity  y-velocity  z-velocity      energy           k       omega     time/iter
   606  5.9691e-03  1.6961e-03  1.0582e-02  9.7766e-01  5.9605e-03  8.5266e-03  2.7371e-03  0:09:31 1394
   607  5.8963e-03  1.6711e-03  1.0586e-02  9.7321e-01  5.8877e-03  8.5405e-03  2.7278e-03  0:07:36 1393
   608  5.8353e-03  1.6493e-03  1.0591e-02  9.7437e-01  5.8267e-03  8.5527e-03  2.7183e-03  0:06:05 1392
   609  5.7638e-03  1.6293e-03  1.0594e-02  9.7333e-01  5.7551e-03  8.5604e-03  2.7089e-03  0:09:30 1391
   610  5.6768e-03  1.6117e-03  1.0599e-02  9.7074e-01  5.6681e-03  8.5617e-03  2.6953e-03  0:07:35 1390
   611  5.5612e-03  1.5958e-03  1.0608e-02  9.6777e-01  5.5527e-03  8.5453e-03  2.6829e-03  0:06:04 1389
   612  5.4409e-03  1.5775e-03  1.0622e-02  9.6489e-01  5.4325e-03  8.5399e-03  2.6656e-03  0:09:29 1388
   613  5.3345e-03  1.5644e-03  1.0636e-02  9.6343e-01  5.3263e-03  8.5310e-03  2.6623e-03  0:07:35 1387
   614  5.2205e-03  1.5525e-03  1.0645e-02  9.5600e-01  5.2124e-03  8.5147e-03  2.6526e-03  0:06:03 1386
   615  5.1090e-03  1.5423e-03  1.0652e-02  9.4945e-01  5.1011e-03  8.5046e-03  2.6506e-03  0:09:28 1385
   616  4.9961e-03  1.5324e-03  1.0651e-02  9.4366e-01  4.9884e-03  8.4882e-03  2.6440e-03  0:07:34 1384

  iter  continuity  x-velocity  y-velocity  z-velocity      energy           k       omega     time/iter
   617  4.8845e-03  1.5246e-03  1.0643e-02  9.3798e-01  4.8770e-03  8.4697e-03  2.6339e-03  0:06:03 1383
   618  4.7804e-03  1.5159e-03  1.0622e-02  9.3732e-01  4.7730e-03  8.4514e-03  2.6300e-03  0:09:26 1382
   619  4.6874e-03  1.5104e-03  1.0603e-02  9.3648e-01  4.6801e-03  8.4312e-03  2.6415e-03  0:07:33 1381
   620  4.6178e-03  1.5065e-03  1.0582e-02  9.3866e-01  4.6105e-03  8.4238e-03  2.6553e-03  0:06:02 1380
   621  4.5646e-03  1.5041e-03  1.0562e-02  9.3718e-01  4.5573e-03  8.4257e-03  2.6597e-03  0:04:49 1379
   622  4.5000e-03  1.4999e-03  1.0543e-02  9.3196e-01  4.4927e-03  8.4166e-03  2.6610e-03  0:08:27 1378
   623  4.4635e-03  1.4988e-03  1.0525e-02  9.2353e-01  4.4561e-03  8.4023e-03  2.6671e-03  0:06:45 1377
   624  4.4425e-03  1.5051e-03  1.0506e-02  9.1127e-01  4.4351e-03  8.4057e-03  2.6766e-03  0:05:24 1376
   625  4.4233e-03  1.5132e-03  1.0479e-02  8.9794e-01  4.4159e-03  8.4063e-03  2.6794e-03  0:08:54 1375
   626  4.4266e-03  1.5230e-03  1.0444e-02  8.8372e-01  4.4193e-03  8.3944e-03  2.6702e-03  0:07:07 1374
[...]
  1838  5.4936e-03  1.5733e-03  7.6613e-03  3.7440e-01  5.4866e-03  3.8452e-03  1.7746e-03  0:00:32  162
  1839  5.5140e-03  1.5829e-03  7.6343e-03  3.7995e-01  5.5071e-03  3.8461e-03  1.7831e-03  0:00:57  161
  1840  5.5362e-03  1.5915e-03  7.6126e-03  3.8319e-01  5.5293e-03  3.8513e-03  1.7869e-03  0:00:46  160
  1841  5.5746e-03  1.5984e-03  7.5953e-03  3.8936e-01  5.5677e-03  3.8574e-03  1.7919e-03  0:00:36  159
  1842  5.6226e-03  1.6045e-03  7.5885e-03  3.9609e-01  5.6157e-03  3.8644e-03  1.7889e-03  0:01:00  158
  1843  5.6622e-03  1.6085e-03  7.5892e-03  4.0240e-01  5.6554e-03  3.8669e-03  1.7813e-03  0:00:48  157
  1844  5.6827e-03  1.6068e-03  7.5919e-03  4.0688e-01  5.6759e-03  3.8725e-03  1.7746e-03  0:00:38  156
  1845  5.7013e-03  1.6050e-03  7.6017e-03  4.1435e-01  5.6946e-03  3.8793e-03  1.7703e-03  0:00:30  155
  1846  5.7229e-03  1.6006e-03  7.6203e-03  4.2148e-01  5.7163e-03  3.8853e-03  1.7677e-03  0:00:55  154
  1847  5.7354e-03  1.5928e-03  7.6273e-03  4.2773e-01  5.7288e-03  3.8890e-03  1.7650e-03  0:00:44  153
  1848  5.7365e-03  1.5842e-03  7.6411e-03  4.3250e-01  5.7300e-03  3.8889e-03  1.7661e-03  0:00:35  152

  iter  continuity  x-velocity  y-velocity  z-velocity      energy           k       omega     time/iter
  1849  5.7319e-03  1.5751e-03  7.6539e-03  4.3517e-01  5.7256e-03  3.8960e-03  1.7621e-03  0:00:28  151
  1850  5.7239e-03  1.5672e-03  7.6636e-03  4.4064e-01  5.7176e-03  3.9105e-03  1.7575e-03  0:00:52  150
  1851  5.6865e-03  1.5599e-03  7.6782e-03  4.4842e-01  5.6804e-03  3.9172e-03  1.7472e-03  0:00:41  149
  1852  5.6199e-03  1.5486e-03  7.6988e-03  4.5599e-01  5.6140e-03  3.9233e-03  1.7367e-03  0:00:33  148
  1853  5.5601e-03  1.5360e-03  7.7288e-03  4.6289e-01  5.5544e-03  3.9280e-03  1.7372e-03  0:00:55  147
  1854  5.4955e-03  1.5217e-03  7.7626e-03  4.6900e-01  5.4898e-03  3.9358e-03  1.7348e-03  0:00:44  146
  1855  5.4293e-03  1.5062e-03  7.8033e-03  4.7594e-01  5.4236e-03  3.9512e-03  1.7298e-03  0:00:35  145
  1856  5.3615e-03  1.4895e-03  7.8466e-03  4.7809e-01  5.3559e-03  3.9571e-03  1.7239e-03  0:00:28  144
  1857  5.2974e-03  1.4724e-03  7.8902e-03  4.8079e-01  5.2917e-03  3.9652e-03  1.7151e-03  0:00:51  143
  1858  5.2386e-03  1.4563e-03  7.9239e-03  4.8327e-01  5.2329e-03  3.9618e-03  1.6989e-03  0:00:40  142
  1859  5.1741e-03  1.4408e-03  7.9599e-03  4.8670e-01  5.1684e-03  3.9585e-03  1.6894e-03  0:00:32  141

  iter  continuity  x-velocity  y-velocity  z-velocity      energy           k       omega     time/iter
  1860  5.0976e-03  1.4264e-03  7.9932e-03  4.9133e-01  5.0919e-03  3.9449e-03  1.6827e-03  0:00:53  140
  1861  5.0095e-03  1.4144e-03  8.0222e-03  4.9717e-01  5.0038e-03  3.9363e-03  1.6822e-03  0:00:42  139
  1862  4.9133e-03  1.4006e-03  8.0502e-03  4.9963e-01  4.9077e-03  3.9163e-03  1.6798e-03  0:00:34  138
  1863  4.8056e-03  1.3854e-03  8.0761e-03  5.0398e-01  4.8001e-03  3.9028e-03  1.6721e-03  0:00:54  137
  1864  4.6868e-03  1.3731e-03  8.1002e-03  5.0686e-01  4.6814e-03  3.9003e-03  1.6654e-03  0:00:43  136
  1865  4.5543e-03  1.3653e-03  8.1193e-03  5.0741e-01  4.5489e-03  3.8960e-03  1.6599e-03  0:00:34  135
  1866  4.4124e-03  1.3586e-03  8.1347e-03  5.0654e-01  4.4070e-03  3.9005e-03  1.6569e-03  0:00:27  134
  1867  4.2707e-03  1.3530e-03  8.1522e-03  5.0629e-01  4.2654e-03  3.9091e-03  1.6541e-03  0:00:48  133
  1868  4.1358e-03  1.3481e-03  8.1721e-03  5.0710e-01  4.1304e-03  3.9097e-03  1.6487e-03  0:00:38  132
  1869  4.0121e-03  1.3426e-03  8.1951e-03  5.0962e-01  4.0067e-03  3.9082e-03  1.6446e-03  0:00:30  131
  1870  3.9056e-03  1.3362e-03  8.2063e-03  5.1209e-01  3.9001e-03  3.9071e-03  1.6451e-03  0:00:24  130

  iter  continuity  x-velocity  y-velocity  z-velocity      energy           k       omega     time/iter
  1871  3.8084e-03  1.3317e-03  8.2215e-03  5.1544e-01  3.8028e-03  3.9089e-03  1.6436e-03  0:00:45  129
  1872  3.7229e-03  1.3284e-03  8.2371e-03  5.1716e-01  3.7171e-03  3.9011e-03  1.6479e-03  0:00:36  128
  1873  3.6508e-03  1.3270e-03  8.2474e-03  5.1950e-01  3.6449e-03  3.8926e-03  1.6465e-03  0:00:28  127
  1874  3.5923e-03  1.3271e-03  8.2533e-03  5.2090e-01  3.5864e-03  3.8884e-03  1.6453e-03  0:00:22  126
  1875  3.5486e-03  1.3285e-03  8.2522e-03  5.1915e-01  3.5427e-03  3.8742e-03  1.6492e-03  0:00:43  125
  1876  3.5039e-03  1.3336e-03  8.2469e-03  5.1995e-01  3.4981e-03  3.8602e-03  1.6532e-03  0:00:34  124
  1877  3.4796e-03  1.3417e-03  8.2330e-03  5.1984e-01  3.4739e-03  3.8459e-03  1.6501e-03  0:00:27  123
  1878  3.4463e-03  1.3513e-03  8.2169e-03  5.1831e-01  3.4406e-03  3.8382e-03  1.6480e-03  0:00:21  122
  1879  3.4067e-03  1.3598e-03  8.1982e-03  5.1750e-01  3.4010e-03  3.8353e-03  1.6522e-03  0:00:41  121
  1880  3.3753e-03  1.3667e-03  8.1765e-03  5.1798e-01  3.3696e-03  3.8310e-03  1.6625e-03  0:00:33  120
  1881  3.3622e-03  1.3735e-03  8.1547e-03  5.1853e-01  3.3564e-03  3.8361e-03  1.6789e-03  0:00:26  119

  iter  continuity  x-velocity  y-velocity  z-velocity      energy           k       omega     time/iter
  1882  3.3757e-03  1.3804e-03  8.1268e-03  5.1973e-01  3.3699e-03  3.8412e-03  1.6930e-03  0:00:21  118
  1883  3.4096e-03  1.3837e-03  8.0992e-03  5.1975e-01  3.4036e-03  3.8450e-03  1.7001e-03  0:00:40  117
  1884  3.4673e-03  1.3867e-03  8.0740e-03  5.1945e-01  3.4613e-03  3.8485e-03  1.7027e-03  0:00:31  116
  1885  3.5424e-03  1.3902e-03  8.0469e-03  5.2036e-01  3.5363e-03  3.8511e-03  1.7168e-03  0:00:25  115
  1886  3.6286e-03  1.3925e-03  8.0179e-03  5.1951e-01  3.6226e-03  3.8530e-03  1.7285e-03  0:00:20  114
  1887  3.7347e-03  1.3936e-03  7.9875e-03  5.1796e-01  3.7287e-03  3.8490e-03  1.7388e-03  0:00:38  113
  1888  3.8503e-03  1.3973e-03  7.9552e-03  5.1798e-01  3.8443e-03  3.8466e-03  1.7420e-03  0:00:30  112
  1889  3.9797e-03  1.4029e-03  7.9163e-03  5.1514e-01  3.9738e-03  3.8456e-03  1.7508e-03  0:00:24  111
  1890  4.0999e-03  1.4091e-03  7.8755e-03  5.1140e-01  4.0940e-03  3.8408e-03  1.7541e-03  0:00:19  110
  1891  4.2182e-03  1.4127e-03  7.8328e-03  5.0671e-01  4.2123e-03  3.8401e-03  1.7588e-03  0:00:37  109
  1892  4.3345e-03  1.4122e-03  7.7896e-03  5.0322e-01  4.3286e-03  3.8312e-03  1.7627e-03  0:00:29  108

  iter  continuity  x-velocity  y-velocity  z-velocity      energy           k       omega     time/iter
  1893  4.4516e-03  1.4089e-03  7.7493e-03  4.9934e-01  4.4457e-03  3.8311e-03  1.7658e-03  0:00:23  107
  1894  4.5714e-03  1.4013e-03  7.7094e-03  4.9744e-01  4.5654e-03  3.8342e-03  1.7728e-03  0:00:18  106
  1895  4.6941e-03  1.3934e-03  7.6751e-03  4.9530e-01  4.6880e-03  3.8324e-03  1.7782e-03  0:00:36  105
  1896  4.8148e-03  1.3825e-03  7.6445e-03  4.9422e-01  4.8086e-03  3.8293e-03  1.7783e-03  0:00:28  104
  1897  4.9300e-03  1.3716e-03  7.6175e-03  4.9505e-01  4.9236e-03  3.8275e-03  1.7730e-03  0:00:22  103
  1898  5.0452e-03  1.3580e-03  7.5973e-03  4.9555e-01  5.0388e-03  3.8287e-03  1.7684e-03  0:00:18  102
  1899  5.1593e-03  1.3404e-03  7.5879e-03  4.9607e-01  5.1528e-03  3.8260e-03  1.7694e-03  0:00:34  101
  1900  5.2838e-03  1.3217e-03  7.5834e-03  4.9485e-01  5.2772e-03  3.8275e-03  1.7681e-03  0:00:27  100
  1901  5.4102e-03  1.3140e-03  7.5800e-03  4.9148e-01  5.4037e-03  3.8238e-03  1.7593e-03  0:00:21   99
  1902  5.5285e-03  1.3108e-03  7.5789e-03  4.8697e-01  5.5218e-03  3.8166e-03  1.7533e-03  0:00:17   98
  1903  5.6459e-03  1.3078e-03  7.5768e-03  4.8258e-01  5.6391e-03  3.8097e-03  1.7576e-03  0:00:33   97

  iter  continuity  x-velocity  y-velocity  z-velocity      energy           k       omega     time/iter
  1904  5.7699e-03  1.3041e-03  7.5764e-03  4.7865e-01  5.7631e-03  3.8010e-03  1.7528e-03  0:00:26   96
  1905  5.9069e-03  1.2982e-03  7.5769e-03  4.7661e-01  5.9000e-03  3.8019e-03  1.7455e-03  0:00:21   95
  1906  6.0504e-03  1.2901e-03  7.5824e-03  4.7450e-01  6.0433e-03  3.8039e-03  1.7399e-03  0:00:16   94
  1907  6.1914e-03  1.2818e-03  7.5944e-03  4.7492e-01  6.1842e-03  3.8067e-03  1.7324e-03  0:00:32   93
  1908  6.3422e-03  1.2729e-03  7.6114e-03  4.7631e-01  6.3350e-03  3.8060e-03  1.7256e-03  0:00:25   92
  1909  6.4865e-03  1.2637e-03  7.6337e-03  4.7903e-01  6.4792e-03  3.8073e-03  1.7145e-03  0:00:20   91
  1910  6.6023e-03  1.2525e-03  7.6601e-03  4.8178e-01  6.5949e-03  3.8080e-03  1.7002e-03  0:00:16   90
  1911  6.7514e-03  1.2385e-03  7.6936e-03  4.8458e-01  6.7439e-03  3.8007e-03  1.6857e-03  0:00:30   89
  1912  6.8922e-03  1.2308e-03  7.7307e-03  4.8456e-01  6.8847e-03  3.7942e-03  1.6790e-03  0:00:24   88
  1913  7.0117e-03  1.2298e-03  7.7712e-03  4.8281e-01  7.0041e-03  3.7857e-03  1.6708e-03  0:00:19   87
  1914  7.1260e-03  1.2316e-03  7.8150e-03  4.7926e-01  7.1184e-03  3.7773e-03  1.6619e-03  0:00:15   86

  iter  continuity  x-velocity  y-velocity  z-velocity      energy           k       omega     time/iter
  1915  7.2260e-03  1.2357e-03  7.8596e-03  4.7481e-01  7.2183e-03  3.7665e-03  1.6570e-03  0:00:12   85
  1916  7.3036e-03  1.2386e-03  7.9046e-03  4.7047e-01  7.2958e-03  3.7602e-03  1.6472e-03  0:00:26   84
  1917  7.3792e-03  1.2405e-03  7.9506e-03  4.6580e-01  7.3713e-03  3.7566e-03  1.6352e-03  0:00:21   83
  1918  7.4522e-03  1.2415e-03  7.9976e-03  4.6104e-01  7.4443e-03  3.7558e-03  1.6212e-03  0:00:16   82
  1919  7.4865e-03  1.2431e-03  8.0451e-03  4.5693e-01  7.4785e-03  3.7515e-03  1.6131e-03  0:00:13   81
  1920  7.5049e-03  1.2445e-03  8.0919e-03  4.5191e-01  7.4969e-03  3.7467e-03  1.5988e-03  0:00:26   80
  1921  7.5125e-03  1.2437e-03  8.1403e-03  4.4789e-01  7.5045e-03  3.7401e-03  1.5905e-03  0:00:21   79
  1922  7.4800e-03  1.2397e-03  8.1886e-03  4.4408e-01  7.4720e-03  3.7345e-03  1.5819e-03  0:00:16   78
  1923  7.4456e-03  1.2342e-03  8.2379e-03  4.3907e-01  7.4376e-03  3.7305e-03  1.5705e-03  0:00:13   77
  1924  7.3555e-03  1.2325e-03  8.2866e-03  4.3227e-01  7.3477e-03  3.7281e-03  1.5591e-03  0:00:25   76
  1925  7.2376e-03  1.2299e-03  8.3344e-03  4.2414e-01  7.2298e-03  3.7230e-03  1.5493e-03  0:00:20   75

  iter  continuity  x-velocity  y-velocity  z-velocity      energy           k       omega     time/iter
  1926  7.1030e-03  1.2285e-03  8.3790e-03  4.1604e-01  7.0954e-03  3.7229e-03  1.5435e-03  0:00:16   74
  1927  6.9614e-03  1.2274e-03  8.4206e-03  4.0956e-01  6.9539e-03  3.7250e-03  1.5370e-03  0:00:12   73
  1928  6.7911e-03  1.2246e-03  8.4597e-03  4.0432e-01  6.7837e-03  3.7222e-03  1.5346e-03  0:00:24   72
  1929  6.6281e-03  1.2231e-03  8.4938e-03  3.9870e-01  6.6208e-03  3.7187e-03  1.5310e-03  0:00:19   71
  1930  6.4596e-03  1.2245e-03  8.5248e-03  3.9475e-01  6.4525e-03  3.7135e-03  1.5278e-03  0:00:15   70
  1931  6.2768e-03  1.2278e-03  8.5527e-03  3.9213e-01  6.2699e-03  3.7086e-03  1.5213e-03  0:00:12   69
  1932  6.0873e-03  1.2297e-03  8.5756e-03  3.9030e-01  6.0805e-03  3.6981e-03  1.5246e-03  0:00:23   68
  1933  5.8989e-03  1.2297e-03  8.5936e-03  3.8970e-01  5.8922e-03  3.6926e-03  1.5277e-03  0:00:18   67
  1934  5.7118e-03  1.2253e-03  8.6096e-03  3.8946e-01  5.7053e-03  3.6844e-03  1.5269e-03  0:00:14   66
  1935  5.5125e-03  1.2201e-03  8.6230e-03  3.9057e-01  5.5061e-03  3.6777e-03  1.5294e-03  0:00:11   65
  1936  5.2910e-03  1.2154e-03  8.6317e-03  3.8854e-01  5.2849e-03  3.6704e-03  1.5305e-03  0:00:22   64

  iter  continuity  x-velocity  y-velocity  z-velocity      energy           k       omega     time/iter
  1937  5.0428e-03  1.2161e-03  8.6343e-03  3.8681e-01  5.0368e-03  3.6684e-03  1.5319e-03  0:00:17   63
  1938  4.7692e-03  1.2206e-03  8.6294e-03  3.8644e-01  4.7634e-03  3.6652e-03  1.5326e-03  0:00:13   62
  1939  4.5130e-03  1.2294e-03  8.6191e-03  3.8681e-01  4.5074e-03  3.6619e-03  1.5369e-03  0:00:11   61
  1940  4.2807e-03  1.2405e-03  8.6015e-03  3.8921e-01  4.2753e-03  3.6589e-03  1.5433e-03  0:00:20   60
  1941  4.0956e-03  1.2537e-03  8.5787e-03  3.9146e-01  4.0903e-03  3.6554e-03  1.5487e-03  0:00:16   59
  1942  3.9418e-03  1.2711e-03  8.5529e-03  3.9274e-01  3.9365e-03  3.6519e-03  1.5504e-03  0:00:13   58
  1943  3.8133e-03  1.2926e-03  8.5233e-03  3.9339e-01  3.8079e-03  3.6484e-03  1.5553e-03  0:00:10   57
  1944  3.7219e-03  1.3161e-03  8.4895e-03  3.9432e-01  3.7164e-03  3.6450e-03  1.5606e-03  0:00:19   56
  1945  3.6723e-03  1.3389e-03  8.4525e-03  3.9481e-01  3.6667e-03  3.6368e-03  1.5717e-03  0:00:15   55
  1946  3.6601e-03  1.3588e-03  8.4144e-03  3.9556e-01  3.6545e-03  3.6296e-03  1.5753e-03  0:00:12   54
  1947  3.6615e-03  1.3781e-03  8.3737e-03  3.9641e-01  3.6558e-03  3.6232e-03  1.5824e-03  0:00:09   53

  iter  continuity  x-velocity  y-velocity  z-velocity      energy           k       omega     time/iter
  1948  3.6736e-03  1.3990e-03  8.3318e-03  3.9407e-01  3.6678e-03  3.6184e-03  1.5911e-03  0:00:18   52
  1949  3.6974e-03  1.4230e-03  8.2882e-03  3.9372e-01  3.6915e-03  3.6182e-03  1.5971e-03  0:00:14   51
  1950  3.7287e-03  1.4498e-03  8.2394e-03  3.9543e-01  3.7227e-03  3.6187e-03  1.6003e-03  0:00:11   50
  1951  3.7750e-03  1.4754e-03  8.1870e-03  3.9900e-01  3.7690e-03  3.6174e-03  1.6040e-03  0:00:08   49
  1952  3.8458e-03  1.4982e-03  8.1321e-03  4.0412e-01  3.8397e-03  3.6203e-03  1.6008e-03  0:00:07   48
  1953  3.9717e-03  1.5185e-03  8.0777e-03  4.0897e-01  3.9655e-03  3.6213e-03  1.5983e-03  0:00:15   47
  1954  4.0889e-03  1.5372e-03  8.0196e-03  4.1453e-01  4.0825e-03  3.6218e-03  1.5993e-03  0:00:11   46
  1955  4.1754e-03  1.5537e-03  7.9620e-03  4.1894e-01  4.1689e-03  3.6221e-03  1.6065e-03  0:00:09   45
  1956  4.2631e-03  1.5667e-03  7.9062e-03  4.2062e-01  4.2563e-03  3.6178e-03  1.6161e-03  0:00:07   44
  1957  4.3802e-03  1.5718e-03  7.8424e-03  4.2310e-01  4.3733e-03  3.6191e-03  1.6250e-03  0:00:14   43
  1958  4.5324e-03  1.5740e-03  7.7936e-03  4.2863e-01  4.5255e-03  3.6188e-03  1.6364e-03  0:00:11   42

  iter  continuity  x-velocity  y-velocity  z-velocity      energy           k       omega     time/iter
  1959  4.6787e-03  1.5753e-03  7.7505e-03  4.3231e-01  4.6718e-03  3.6206e-03  1.6473e-03  0:00:09   41
  1960  4.8148e-03  1.5766e-03  7.7071e-03  4.3219e-01  4.8079e-03  3.6206e-03  1.6578e-03  0:00:07   40
  1961  4.9401e-03  1.5779e-03  7.6616e-03  4.3147e-01  4.9332e-03  3.6244e-03  1.6654e-03  0:00:13   39
  1962  5.0685e-03  1.5819e-03  7.6223e-03  4.3281e-01  5.0616e-03  3.6331e-03  1.6649e-03  0:00:10   38
  1963  5.1391e-03  1.5883e-03  7.5885e-03  4.3451e-01  5.1323e-03  3.6403e-03  1.6681e-03  0:00:08   37
  1964  5.2238e-03  1.5952e-03  7.5546e-03  4.4067e-01  5.2170e-03  3.6501e-03  1.6729e-03  0:00:06   36
  1965  5.3026e-03  1.5989e-03  7.5259e-03  4.4534e-01  5.2958e-03  3.6581e-03  1.6801e-03  0:00:12   35
  1966  5.3673e-03  1.6026e-03  7.5009e-03  4.4563e-01  5.3605e-03  3.6667e-03  1.6862e-03  0:00:09   34
  1967  5.4226e-03  1.6076e-03  7.4849e-03  4.4731e-01  5.4158e-03  3.6774e-03  1.6920e-03  0:00:07   33
  1968  5.4945e-03  1.6116e-03  7.4726e-03  4.5016e-01  5.4877e-03  3.6917e-03  1.6998e-03  0:00:06   32
  1969  5.5629e-03  1.6137e-03  7.4684e-03  4.5316e-01  5.5561e-03  3.6988e-03  1.7053e-03  0:00:10   31

  iter  continuity  x-velocity  y-velocity  z-velocity      energy           k       omega     time/iter
  1970  5.6212e-03  1.6119e-03  7.4729e-03  4.5524e-01  5.6144e-03  3.7052e-03  1.7035e-03  0:00:08   30
  1971  5.6517e-03  1.6045e-03  7.4755e-03  4.5416e-01  5.6450e-03  3.7133e-03  1.7009e-03  0:00:06   29
  1972  5.6693e-03  1.5981e-03  7.4824e-03  4.6165e-01  5.6626e-03  3.7215e-03  1.6907e-03  0:00:05   28
  1973  5.6684e-03  1.5890e-03  7.4949e-03  4.6282e-01  5.6618e-03  3.7303e-03  1.6797e-03  0:00:09   27
  1974  5.6518e-03  1.5777e-03  7.4946e-03  4.6364e-01  5.6452e-03  3.7353e-03  1.6750e-03  0:00:07   26
  1975  5.6418e-03  1.5683e-03  7.4999e-03  4.6286e-01  5.6353e-03  3.7448e-03  1.6702e-03  0:00:05   25
  1976  5.6257e-03  1.5631e-03  7.5084e-03  4.6214e-01  5.6192e-03  3.7550e-03  1.6703e-03  0:00:04   24
  1977  5.5887e-03  1.5600e-03  7.5120e-03  4.6182e-01  5.5823e-03  3.7708e-03  1.6698e-03  0:00:08   23
  1978  5.5227e-03  1.5541e-03  7.5222e-03  4.6451e-01  5.5164e-03  3.7847e-03  1.6663e-03  0:00:06   22
  1979  5.4391e-03  1.5420e-03  7.5428e-03  4.6765e-01  5.4329e-03  3.8041e-03  1.6603e-03  0:00:05   21
  1980  5.3557e-03  1.5298e-03  7.5665e-03  4.6945e-01  5.3496e-03  3.8162e-03  1.6598e-03  0:00:07   20

  iter  continuity  x-velocity  y-velocity  z-velocity      energy           k       omega     time/iter
  1981  5.2668e-03  1.5157e-03  7.5959e-03  4.7115e-01  5.2607e-03  3.8293e-03  1.6576e-03  0:00:06   19
  1982  5.1956e-03  1.4992e-03  7.6314e-03  4.7069e-01  5.1894e-03  3.8463e-03  1.6584e-03  0:00:04   18
  1983  5.1324e-03  1.4810e-03  7.6688e-03  4.7037e-01  5.1262e-03  3.8543e-03  1.6542e-03  0:00:03   17
  1984  5.0745e-03  1.4628e-03  7.6955e-03  4.6748e-01  5.0683e-03  3.8631e-03  1.6533e-03  0:00:02   16
  1985  5.0166e-03  1.4449e-03  7.7228e-03  4.6659e-01  5.0104e-03  3.8626e-03  1.6530e-03  0:00:05   15
  1986  4.9545e-03  1.4287e-03  7.7484e-03  4.6569e-01  4.9483e-03  3.8651e-03  1.6475e-03  0:00:04   14
  1987  4.8726e-03  1.4147e-03  7.7706e-03  4.6720e-01  4.8665e-03  3.8688e-03  1.6386e-03  0:00:03   13
  1988  4.7810e-03  1.4015e-03  7.7921e-03  4.6767e-01  4.7750e-03  3.8749e-03  1.6334e-03  0:00:04   12
  1989  4.6662e-03  1.3888e-03  7.8164e-03  4.6688e-01  4.6603e-03  3.8794e-03  1.6284e-03  0:00:03   11
  1990  4.5577e-03  1.3806e-03  7.8431e-03  4.6670e-01  4.5520e-03  3.8828e-03  1.6316e-03  0:00:02   10
  1991  4.4442e-03  1.3760e-03  7.8677e-03  4.6392e-01  4.4386e-03  3.8926e-03  1.6302e-03  0:00:02    9

  iter  continuity  x-velocity  y-velocity  z-velocity      energy           k       omega     time/iter
  1992  4.3277e-03  1.3737e-03  7.8900e-03  4.5951e-01  4.3222e-03  3.9005e-03  1.6270e-03  0:00:03    8
  1993  4.2127e-03  1.3714e-03  7.9142e-03  4.5436e-01  4.2073e-03  3.9140e-03  1.6270e-03  0:00:02    7
  1994  4.1103e-03  1.3683e-03  7.9380e-03  4.4983e-01  4.1050e-03  3.9235e-03  1.6274e-03  0:00:01    6
  1995  4.0258e-03  1.3645e-03  7.9601e-03  4.4766e-01  4.0205e-03  3.9279e-03  1.6287e-03  0:00:02    5
  1996  3.9596e-03  1.3596e-03  7.9718e-03  4.4426e-01  3.9542e-03  3.9309e-03  1.6311e-03  0:00:01    4
  1997  3.9007e-03  1.3537e-03  7.9851e-03  4.4100e-01  3.8953e-03  3.9357e-03  1.6293e-03  0:00:01    3
  1998  3.8544e-03  1.3478e-03  7.9995e-03  4.3886e-01  3.8490e-03  3.9365e-03  1.6338e-03  0:00:01    2
  1999  3.8186e-03  1.3425e-03  8.0104e-03  4.3536e-01  3.8132e-03  3.9295e-03  1.6343e-03  0:00:00    1
  2000  3.7818e-03  1.3362e-03  8.0171e-03  4.3195e-01  3.7765e-03  3.9242e-03  1.6366e-03  0:00:00    0

> 
adjoint/                parallel/               server/
define/                 parametric-study/       solve/
display/                plot/                   surface/
exit                    preferences/            turbo-workflow/
file/                   print-license-usage     views/
mesh/                   report/

> /file/write-case-data project1
Fast-loading "C:\PROGRA~1\ANSYSI~1\v231\fluent\fluent23.1.0\\addons\afd\lib\hdfio.bin"
Done.

Writing to Engs-30669:"C:\Users\kebl7595\Desktop\CFD\Runs\Flap\6 degrees\project1.cas.h5" in NODE0 mode and compression level 1 ...
       24072 cells,     1 zone  ...
       80918 faces,     7 zones ...
       33000 nodes,     1 zone  ...
  Done.
Done.

Writing to Engs-30669:"C:\Users\kebl7595\Desktop\CFD\Runs\Flap\6 degrees\project1.dat.h5" in NODE0 mode and compression level 1 ...
  Writing results.
Done.

> /file/export/ascii "./surface.dat" wing () no pressure mach-number quit no

Writing "./surface.dat"...

Writing information to ascii file ...
Done.


> /report/forces/wall-forces y -0.10453 -0.99452 0 y "Lift"

> /report/forces/wall-forces y 0.99452 -0.10453 0 y "Drag"

> ;/exit

> /exit y

Posting ANSYS Product Improvement Program performance data 
Done.
Auto-Transcript Stop Time:  10:24:25, 22 May 2024 GMT Daylight Time 
Total Transcript Time: 15 Minute 57 Second.
