Auto-Transcript Start Time:  14:39:10, 20 May 2024 GMT Daylight Time 
Current Directory: "C:\Users\kebl7595\Desktop\CFD\Runs\Actual Data\3 degrees"

              Welcome to ANSYS Fluent 2023 R1

              Copyright 1987-2023 ANSYS, Inc. All Rights Reserved.
              Unauthorized use, distribution or duplication is prohibited.
              This product is subject to U.S. laws governing export and re-export.
              For full Legal Notice, see documentation.

Build Time: Nov 28 2022 09:52:02 EST  Build Id: 10208  
 
Connected License Server List:	1055@ansyslic.eng.ox.ac.uk

*********************************************
Info: Your license enables 4-way parallel execution.
For faster simulations, please start the application with the appropriate parallel options.
*********************************************


     --------------------------------------------------------------
     This is an academic version of ANSYS FLUENT. Usage of this product
     license is limited to the terms and conditions specified in your ANSYS
     license form, additional terms section.
     --------------------------------------------------------------
Host spawning Node 0 on machine "Engs-30669" (win64).

------------------------------------------------------------------------------------
ID    Hostname    Core  O.S.         PID    Vendor                                 
------------------------------------------------------------------------------------
n0    Engs-30669  1/32  Windows-x64  44188  13th Gen Intel(R) Core(TM) i9-13900    
host  Engs-30669        Windows-x64  38568  13th Gen Intel(R) Core(TM) i9-13900    

MPI Option Selected: intel
------------------------------------------------------------------------------------

Cleanup script file is C:\\Users\\kebl7595\\Desktop\\CFD\\Runs\\Actual Data\\3 degrees\\cleanup-fluent-Engs-30669-38568.bat
QA Service Message :
QA Services Agreement Enabled. This application is included in the scope of an ANSYS QA Services Agreement.
Posting ANSYS Product Improvement Program startup data
Done.

Reading journal file C:/Users/kebl7595/Desktop/CFD/Runs/Actual Data/3 degrees/project1.jou...

> /file/set-batch-options no no no 

> 
define/                 parametric-study/       solve/
display/                plot/                   surface/
exit                    preferences/            switch-to-meshing-mode
file/                   print-license-usage     turbo-workflow/
mesh/                   report/                 views/
parallel/               server/

> /file/import/cgns/mesh  "./project1.cgns"
Engs-30669 has other FLUENT parallel processes running.                       Process affinity not being set.

Importing "./project1.cgns"

Opening library "C:\\PROGRA~1\\ANSYSI~1\\v231\\fluent\\fluent23.1.0\\vki\\win64\\devtools4.4.6.dll"... done.

Read    17864 nodes
   12996 hexahedral cells, zone  1
    9462 quadrilateral wall faces, zone  2.
   33972 quadrilateral interior faces, zone  3.
     282 quadrilateral interface faces, zone  4.
       6 quadrilateral wall faces, zone  5.

Building...
     mesh
     materials,
     interface,
     domains,
     zones,
	default_exterior-1
	interface-default_subface
	default_interior-1
	default_subface
	default
     parallel,
The automatic selection for flux type has changed to Rhie-Chow: momentum based.

Done.


> 
adjoint/                parallel/               server/
define/                 parametric-study/       solve/
display/                plot/                   surface/
exit                    preferences/            turbo-workflow/
file/                   print-license-usage     views/
mesh/                   report/

> /define/models/solver/density-based-implicit yes

> 
adjoint/                parallel/               server/
define/                 parametric-study/       solve/
display/                plot/                   surface/
exit                    preferences/            turbo-workflow/
file/                   print-license-usage     views/
mesh/                   report/

> /define/models/energy? yes yes invalid command [yes]
yes

> /define/models/viscous/inviscid yes

> 
adjoint/                parallel/               server/
define/                 parametric-study/       solve/
display/                plot/                   surface/
exit                    preferences/            turbo-workflow/
file/                   print-license-usage     views/
mesh/                   report/

> /define/materials/change-create air air air is a fluid
yes 
Density
ideal-gas no data required.

no no no no 

> 
adjoint/                parallel/               server/
define/                 parametric-study/       solve/
display/                plot/                   surface/
exit                    preferences/            turbo-workflow/
file/                   print-license-usage     views/
mesh/                   report/

> /mesh/modify-zones/sep-face-zone-angle 2 90 yes

 4332 faces in contiguous region 0
 228 faces in contiguous region 1
 342 faces in contiguous region 2
 4332 faces in contiguous region 3
 228 faces in contiguous region 4
 Separates zone 2 into 5 zone(s).
Updating new zone information...
   created new zone default_subface:010 from default_subface
   created new zone default_subface:009 from default_subface
   created new zone default_subface:008 from default_subface
   created new zone default_subface:007 from default_subface
done.

> 
adjoint/                parallel/               server/
define/                 parametric-study/       solve/
display/                plot/                   surface/
exit                    preferences/            turbo-workflow/
file/                   print-license-usage     views/
mesh/                   report/

> /define/boundary-conditions/zone-name  5   te

> /define/boundary-conditions/zone-name  7 wing

> /define/boundary-conditions/zone-name  2 sym1

> /define/boundary-conditions/zone-name  9 sym2

> 
adjoint/                parallel/               server/
define/                 parametric-study/       solve/
display/                plot/                   surface/
exit                    preferences/            turbo-workflow/
file/                   print-license-usage     views/
mesh/                   report/

> /define/boundary-conditions/zone-name  8 far1

> /define/boundary-conditions/zone-name 10 far2

> 
adjoint/                parallel/               server/
define/                 parametric-study/       solve/
display/                plot/                   surface/
exit                    preferences/            turbo-workflow/
file/                   print-license-usage     views/
mesh/                   report/

> /define/boundary-conditions/zone-type  8 pressure-far-field

> /define/boundary-conditions/zone-type 10 pressure-far-field

> /define/boundary-conditions/zone-type  2 symmetry

> /define/boundary-conditions/zone-type  9 symmetry

> 
adjoint/                parallel/               server/
define/                 parametric-study/       solve/
display/                plot/                   surface/
exit                    preferences/            turbo-workflow/
file/                   print-license-usage     views/
mesh/                   report/

> /define/boundary-conditions/pressure-far-field (far2 far1)
far1 no 0 no 0.1 no 300 yes no 0.99863 no 0.052336 no 0

> /define/boundary-conditions/pressure-far-field (far2 far1)
far2 no 0 no 0.1 no 300 yes no 0.99863 no 0.052336 no 0

> 
adjoint/                parallel/               server/
define/                 parametric-study/       solve/
display/                plot/                   surface/
exit                    preferences/            turbo-workflow/
file/                   print-license-usage     views/
mesh/                   report/

> /solve/initialize/compute-defaults/pressure-far-field (far2 far1)
far1

> /solve/initialize/initialize-flow

> 
adjoint/                parallel/               server/
define/                 parametric-study/       solve/
display/                plot/                   surface/
exit                    preferences/            turbo-workflow/
file/                   print-license-usage     views/
mesh/                   report/

> /solve/monitors/residual/convergence-criteria 1.e-9 1.e-9 1.e-9 1.e-9 1.e-9

> /solve/iterate 2000

  iter  continuity  x-velocity  y-velocity  z-velocity      energy     time/iter
     1  1.0000e+00  1.0000e+00  1.0000e+00  0.0000e+00  1.0000e+00  0:00:00 1999
     2  5.4553e-01  5.8531e-01  3.3081e-01  1.0000e+00  5.4622e-01  0:00:00 1998
     3  2.8917e-01  2.2713e-01  2.5781e-01  8.8330e-01  2.8942e-01  0:00:00 1997
     4  1.8209e-01  1.9190e-01  1.7266e-01  5.9334e-01  1.8216e-01  0:00:00 1996
     5  1.4089e-01  1.4335e-01  1.1298e-01  6.4832e-01  1.4099e-01  0:00:00 1995
     6  1.1766e-01  1.0025e-01  7.8334e-02  8.4330e-01  1.1780e-01  0:00:00 1994
     7  1.0128e-01  7.0665e-02  5.7543e-02  8.6796e-01  1.0145e-01  0:00:00 1993
     8  8.8456e-02  5.2820e-02  4.3808e-02  7.8733e-01  8.8634e-02  0:00:00 1992
     9  7.8294e-02  4.2541e-02  3.4285e-02  6.8230e-01  7.8469e-02  0:33:11 1991
    10  7.0527e-02  3.6942e-02  2.7626e-02  6.2873e-01  7.0694e-02  0:26:32 1990
    11  6.4694e-02  3.4287e-02  2.2870e-02  5.8775e-01  6.4853e-02  0:21:13 1989

  iter  continuity  x-velocity  y-velocity  z-velocity      energy     time/iter
    12  6.0721e-02  3.3419e-02  1.9461e-02  5.5597e-01  6.0871e-02  0:16:58 1988
    13  5.8053e-02  3.3536e-02  1.7020e-02  5.3367e-01  5.8196e-02  0:13:34 1987
    14  5.6641e-02  3.4393e-02  1.5272e-02  5.2046e-01  5.6777e-02  0:10:51 1986
    15  5.6163e-02  3.5715e-02  1.4165e-02  5.1834e-01  5.6293e-02  0:08:40 1985
    16  5.6443e-02  3.7377e-02  1.3530e-02  5.2015e-01  5.6566e-02  0:06:56 1984
    17  5.7305e-02  3.9166e-02  1.3253e-02  5.2333e-01  5.7423e-02  0:05:33 1983
    18  5.8597e-02  4.0997e-02  1.3270e-02  5.2577e-01  5.8708e-02  0:04:26 1982
    19  6.0091e-02  4.2695e-02  1.3566e-02  5.2878e-01  6.0194e-02  0:03:33 1981
    20  6.1624e-02  4.4139e-02  1.4075e-02  5.3254e-01  6.1718e-02  0:02:50 1980
    21  6.3049e-02  4.5252e-02  1.4726e-02  5.3577e-01  6.3135e-02  0:02:16 1979
    22  6.4238e-02  4.5955e-02  1.5464e-02  5.3920e-01  6.4313e-02  0:01:49 1978

  iter  continuity  x-velocity  y-velocity  z-velocity      energy     time/iter
    23  6.5088e-02  4.6213e-02  1.6235e-02  5.4105e-01  6.5152e-02  0:08:02 1977
    24  6.5505e-02  4.6003e-02  1.6991e-02  5.4004e-01  6.5559e-02  0:06:26 1976
    25  6.5347e-02  4.5269e-02  1.7750e-02  5.3457e-01  6.5389e-02  0:05:08 1975
    26  6.4428e-02  4.4004e-02  1.8483e-02  5.2358e-01  6.4460e-02  0:04:07 1974
    27  6.2736e-02  4.2280e-02  1.9112e-02  5.0515e-01  6.2758e-02  0:03:17 1973
    28  6.0285e-02  4.0133e-02  1.9551e-02  4.8141e-01  6.0297e-02  0:02:38 1972
    29  5.7139e-02  3.7628e-02  1.9747e-02  4.5199e-01  5.7143e-02  0:02:06 1971
    30  5.3319e-02  3.4808e-02  1.9685e-02  4.1828e-01  5.3317e-02  0:01:41 1970
    31  4.8995e-02  3.1754e-02  1.9369e-02  3.8330e-01  4.8988e-02  0:01:21 1969
    32  4.4194e-02  2.8569e-02  1.8802e-02  3.5106e-01  4.4183e-02  0:01:04 1968
    33  3.9050e-02  2.5394e-02  1.8023e-02  3.2570e-01  3.9038e-02  0:00:52 1967

  iter  continuity  x-velocity  y-velocity  z-velocity      energy     time/iter
    34  3.3671e-02  2.2437e-02  1.7082e-02  3.1289e-01  3.3658e-02  0:00:41 1966
    35  2.8129e-02  1.9942e-02  1.6025e-02  3.1399e-01  2.8116e-02  0:00:33 1965
    36  2.2605e-02  1.8251e-02  1.4874e-02  3.3183e-01  2.2592e-02  0:00:26 1964
    37  1.7246e-02  1.7651e-02  1.3714e-02  3.6309e-01  1.7234e-02  0:00:21 1963
    38  1.2390e-02  1.8208e-02  1.2599e-02  4.0441e-01  1.2374e-02  0:00:17 1962
    39  8.7389e-03  1.9715e-02  1.1597e-02  4.5108e-01  8.7141e-03  0:06:46 1961
    40  7.9706e-03  2.1845e-02  1.0752e-02  4.9863e-01  7.9356e-03  0:05:24 1960
    41  1.0444e-02  2.4282e-02  1.0084e-02  5.4336e-01  1.0408e-02  0:04:19 1959
    42  1.4306e-02  2.6786e-02  9.6173e-03  5.8421e-01  1.4271e-02  0:03:27 1958
    43  1.8375e-02  2.9190e-02  9.3597e-03  6.1753e-01  1.8340e-02  0:02:46 1957
    44  2.2208e-02  3.1392e-02  9.2915e-03  6.4120e-01  2.2174e-02  0:02:13 1956

  iter  continuity  x-velocity  y-velocity  z-velocity      energy     time/iter
    45  2.5719e-02  3.3306e-02  9.3810e-03  6.5397e-01  2.5685e-02  0:01:46 1955
    46  2.8800e-02  3.4873e-02  9.5946e-03  6.5185e-01  2.8768e-02  0:01:25 1954
    47  3.1381e-02  3.6076e-02  9.8769e-03  6.3836e-01  3.1350e-02  0:01:08 1953
    48  3.3465e-02  3.6920e-02  1.0173e-02  6.2379e-01  3.3437e-02  0:00:54 1952
    49  3.5074e-02  3.7368e-02  1.0454e-02  5.8382e-01  3.5047e-02  0:00:43 1951
    50  3.6230e-02  3.7453e-02  1.0686e-02  5.4490e-01  3.6206e-02  0:00:35 1950
    51  3.6954e-02  3.7176e-02  1.0859e-02  5.0159e-01  3.6933e-02  0:00:28 1949
    52  3.7266e-02  3.6587e-02  1.0967e-02  4.5392e-01  3.7249e-02  0:00:22 1948
    53  3.7186e-02  3.5739e-02  1.0991e-02  4.0173e-01  3.7171e-02  0:00:18 1947
    54  3.6732e-02  3.4635e-02  1.0944e-02  3.5206e-01  3.6721e-02  0:00:14 1946
    55  3.5929e-02  3.3302e-02  1.0829e-02  3.0895e-01  3.5921e-02  0:06:40 1945

  iter  continuity  x-velocity  y-velocity  z-velocity      energy     time/iter
    56  3.4805e-02  3.1766e-02  1.0652e-02  2.7777e-01  3.4799e-02  0:05:20 1944
    57  3.3393e-02  3.0053e-02  1.0420e-02  2.6540e-01  3.3389e-02  0:04:16 1943
    58  3.1728e-02  2.8199e-02  1.0134e-02  2.7395e-01  3.1726e-02  0:03:25 1942
    59  2.9847e-02  2.6250e-02  9.7969e-03  3.0028e-01  2.9848e-02  0:02:44 1941
    60  2.7791e-02  2.4262e-02  9.4129e-03  3.3635e-01  2.7793e-02  0:02:11 1940
    61  2.5592e-02  2.2245e-02  8.9913e-03  3.7558e-01  2.5594e-02  0:01:45 1939
    62  2.3280e-02  2.0201e-02  8.5381e-03  4.1280e-01  2.3282e-02  0:01:24 1938
    63  2.0885e-02  1.8197e-02  8.0520e-03  4.4483e-01  2.0888e-02  0:01:07 1937
    64  1.8434e-02  1.6265e-02  7.5417e-03  4.6849e-01  1.8437e-02  0:00:53 1936
    65  1.5955e-02  1.4458e-02  7.0158e-03  4.8379e-01  1.5957e-02  0:00:43 1935
    66  1.3460e-02  1.2839e-02  6.4822e-03  4.9047e-01  1.3462e-02  0:00:34 1934

  iter  continuity  x-velocity  y-velocity  z-velocity      energy     time/iter
    67  1.0984e-02  1.1486e-02  5.9461e-03  4.8245e-01  1.0985e-02  0:00:27 1933
    68  8.5781e-03  1.0489e-02  5.4143e-03  4.7516e-01  8.5772e-03  0:00:22 1932
    69  6.3676e-03  9.9256e-03  4.8923e-03  4.6250e-01  6.3647e-03  0:00:17 1931
    70  4.5750e-03  9.8273e-03  4.3948e-03  4.4095e-01  4.5695e-03  0:00:14 1930
    71  3.7797e-03  1.0164e-02  3.9354e-03  4.1380e-01  3.7723e-03  0:06:37 1929
    72  4.4450e-03  1.0861e-02  3.5364e-03  3.8566e-01  4.4390e-03  0:05:17 1928
    73  6.0211e-03  1.1805e-02  3.2220e-03  3.6049e-01  6.0173e-03  0:04:14 1927
    74  7.9056e-03  1.2882e-02  3.0142e-03  3.4240e-01  7.9035e-03  0:03:23 1926
    75  9.8442e-03  1.4004e-02  2.9279e-03  3.3755e-01  9.8433e-03  0:02:42 1925
    76  1.1741e-02  1.5127e-02  2.9708e-03  3.4749e-01  1.1741e-02  0:02:10 1924
    77  1.3555e-02  1.6205e-02  3.1235e-03  3.7063e-01  1.3555e-02  0:01:44 1923

  iter  continuity  x-velocity  y-velocity  z-velocity      energy     time/iter
    78  1.5250e-02  1.7193e-02  3.3551e-03  4.0676e-01  1.5250e-02  0:01:23 1922
    79  1.6804e-02  1.8065e-02  3.6376e-03  4.5508e-01  1.6804e-02  0:01:06 1921
    80  1.8200e-02  1.8802e-02  3.9456e-03  5.0716e-01  1.8199e-02  0:00:53 1920
    81  1.9423e-02  1.9385e-02  4.2586e-03  5.5686e-01  1.9422e-02  0:00:42 1919
    82  2.0462e-02  1.9804e-02  4.5592e-03  6.0071e-01  2.0461e-02  0:00:34 1918
    83  2.1309e-02  2.0053e-02  4.8369e-03  6.3812e-01  2.1306e-02  0:00:27 1917
    84  2.1948e-02  2.0121e-02  5.0845e-03  6.6633e-01  2.1944e-02  0:00:22 1916
    85  2.2371e-02  2.0010e-02  5.2888e-03  6.8440e-01  2.2366e-02  0:06:40 1915
    86  2.2585e-02  1.9735e-02  5.4389e-03  6.8972e-01  2.2579e-02  0:05:20 1914
    87  2.2584e-02  1.9298e-02  5.5340e-03  6.8006e-01  2.2577e-02  0:04:16 1913
    88  2.2365e-02  1.8702e-02  5.5792e-03  6.5615e-01  2.2358e-02  0:03:25 1912

  iter  continuity  x-velocity  y-velocity  z-velocity      energy     time/iter
    89  2.1912e-02  1.7958e-02  5.5774e-03  6.2540e-01  2.1903e-02  0:02:44 1911
    90  2.1196e-02  1.7081e-02  5.5389e-03  5.8790e-01  2.1186e-02  0:02:11 1910
    91  2.0224e-02  1.6108e-02  5.4589e-03  5.3812e-01  2.0214e-02  0:01:45 1909
    92  1.9009e-02  1.5075e-02  5.3323e-03  4.9162e-01  1.8998e-02  0:01:24 1908
    93  1.7590e-02  1.4027e-02  5.1602e-03  4.3129e-01  1.7579e-02  0:01:07 1907
    94  1.6013e-02  1.3013e-02  4.9497e-03  3.6643e-01  1.6003e-02  0:00:53 1906
    95  1.4308e-02  1.2094e-02  4.7103e-03  3.0345e-01  1.4298e-02  0:00:43 1905
    96  1.2505e-02  1.1325e-02  4.4581e-03  2.5412e-01  1.2495e-02  0:00:34 1904
    97  1.0620e-02  1.0772e-02  4.2079e-03  2.3464e-01  1.0611e-02  0:00:27 1903
    98  8.6787e-03  1.0482e-02  3.9784e-03  2.5301e-01  8.6698e-03  0:00:22 1902
    99  6.7836e-03  1.0487e-02  3.7850e-03  3.0398e-01  6.7753e-03  0:06:38 1901

  iter  continuity  x-velocity  y-velocity  z-velocity      energy     time/iter
   100  5.0198e-03  1.0764e-02  3.6399e-03  3.7269e-01  5.0122e-03  0:05:18 1900
   101  3.6151e-03  1.1262e-02  3.5527e-03  4.4831e-01  3.6083e-03  0:04:14 1899
   102  3.1269e-03  1.1907e-02  3.5428e-03  5.2512e-01  3.1217e-03  0:03:23 1898
   103  3.8105e-03  1.2633e-02  3.5990e-03  5.9806e-01  3.8073e-03  0:02:43 1897
   104  5.1378e-03  1.3379e-02  3.7075e-03  6.6391e-01  5.1354e-03  0:02:10 1896
   105  6.6547e-03  1.4087e-02  3.8505e-03  7.2066e-01  6.6523e-03  0:01:44 1895
   106  8.1771e-03  1.4727e-02  4.0134e-03  7.6804e-01  8.1744e-03  0:01:23 1894
   107  9.6286e-03  1.5265e-02  4.1784e-03  8.0509e-01  9.6256e-03  0:01:06 1893
   108  1.0940e-02  1.5681e-02  4.3364e-03  8.3108e-01  1.0937e-02  0:00:53 1892
   109  1.2086e-02  1.5971e-02  4.4758e-03  8.4537e-01  1.2082e-02  0:00:42 1891
   110  1.3051e-02  1.6133e-02  4.5925e-03  8.4583e-01  1.3047e-02  0:00:34 1890

  iter  continuity  x-velocity  y-velocity  z-velocity      energy     time/iter
   111  1.3831e-02  1.6162e-02  4.6806e-03  8.2009e-01  1.3827e-02  0:00:27 1889
   112  1.4419e-02  1.6059e-02  4.7379e-03  7.9196e-01  1.4416e-02  0:00:22 1888
   113  1.4814e-02  1.5820e-02  4.7678e-03  7.6285e-01  1.4811e-02  0:06:35 1887
   114  1.5016e-02  1.5456e-02  4.7660e-03  7.4049e-01  1.5013e-02  0:05:16 1886
   115  1.5029e-02  1.4982e-02  4.7317e-03  7.0964e-01  1.5026e-02  0:04:12 1885
   116  1.4858e-02  1.4408e-02  4.6655e-03  6.6328e-01  1.4855e-02  0:03:22 1884
   117  1.4511e-02  1.3751e-02  4.5695e-03  6.0963e-01  1.4509e-02  0:02:41 1883
   118  1.4002e-02  1.3028e-02  4.4459e-03  5.4849e-01  1.4000e-02  0:02:09 1882
   119  1.3342e-02  1.2259e-02  4.2967e-03  4.8209e-01  1.3340e-02  0:01:43 1881
   120  1.2547e-02  1.1463e-02  4.1245e-03  4.1183e-01  1.2545e-02  0:01:22 1880
   121  1.1635e-02  1.0652e-02  3.9315e-03  3.3914e-01  1.1634e-02  0:01:06 1879

  iter  continuity  x-velocity  y-velocity  z-velocity      energy     time/iter
   122  1.0621e-02  9.8377e-03  3.7214e-03  2.6766e-01  1.0620e-02  0:00:53 1878
   123  9.5227e-03  9.0410e-03  3.4998e-03  1.9982e-01  9.5220e-03  0:00:42 1877
   124  8.3640e-03  8.3193e-03  3.2631e-03  1.4437e-01  8.3632e-03  0:00:34 1876
   125  7.1652e-03  7.6836e-03  3.0193e-03  1.1961e-01  7.1644e-03  0:00:27 1875
   126  5.9493e-03  7.1579e-03  2.7717e-03  1.3763e-01  5.9484e-03  0:00:22 1874
   127  4.7440e-03  6.7611e-03  2.5257e-03  1.8320e-01  4.7428e-03  0:06:32 1873
   128  3.5938e-03  6.5080e-03  2.2835e-03  2.3831e-01  3.5920e-03  0:05:13 1872
   129  2.5742e-03  6.3929e-03  2.0566e-03  2.9396e-01  2.5716e-03  0:04:11 1871
   130  1.8757e-03  6.4043e-03  1.8506e-03  3.4592e-01  1.8719e-03  0:03:20 1870
   131  1.8320e-03  6.5186e-03  1.6727e-03  3.9239e-01  1.8279e-03  0:02:40 1869
   132  2.4074e-03  6.7044e-03  1.5315e-03  4.3351e-01  2.4042e-03  0:02:08 1868

  iter  continuity  x-velocity  y-velocity  z-velocity      energy     time/iter
   133  3.2234e-03  6.9326e-03  1.4357e-03  4.6839e-01  3.2210e-03  0:01:42 1867
   134  4.0779e-03  7.1767e-03  1.3920e-03  4.9633e-01  4.0758e-03  0:01:22 1866
   135  4.8967e-03  7.4184e-03  1.3974e-03  5.1818e-01  4.8949e-03  0:01:05 1865
   136  5.6485e-03  7.6388e-03  1.4455e-03  5.3423e-01  5.6468e-03  0:00:52 1864
   137  6.3174e-03  7.8257e-03  1.5276e-03  5.4533e-01  6.3158e-03  0:00:42 1863
   138  6.8949e-03  7.9824e-03  1.6298e-03  5.5094e-01  6.8933e-03  0:00:33 1862
   139  7.3761e-03  8.0988e-03  1.7398e-03  5.5065e-01  7.3745e-03  0:00:27 1861
   140  7.7582e-03  8.1662e-03  1.8507e-03  5.4398e-01  7.7565e-03  0:00:21 1860
   141  8.0404e-03  8.1831e-03  1.9564e-03  5.3130e-01  8.0388e-03  0:00:17 1859
   142  8.2240e-03  8.1504e-03  2.0515e-03  5.2040e-01  8.2223e-03  0:06:25 1858
   143  8.3114e-03  8.0725e-03  2.1325e-03  5.0227e-01  8.3097e-03  0:05:08 1857

  iter  continuity  x-velocity  y-velocity  z-velocity      energy     time/iter
   144  8.3063e-03  7.9508e-03  2.1973e-03  4.8041e-01  8.3045e-03  0:04:06 1856
   145  8.2134e-03  7.7958e-03  2.2455e-03  4.5926e-01  8.2116e-03  0:03:17 1855
   146  8.0379e-03  7.6075e-03  2.2749e-03  4.3367e-01  8.0361e-03  0:02:37 1854
   147  7.7858e-03  7.3938e-03  2.2855e-03  4.0455e-01  7.7840e-03  0:02:06 1853
   148  7.4633e-03  7.1616e-03  2.2777e-03  3.7178e-01  7.4616e-03  0:01:41 1852
   149  7.0770e-03  6.9169e-03  2.2522e-03  3.3705e-01  7.0754e-03  0:01:20 1851
   150  6.6347e-03  6.6719e-03  2.2095e-03  3.0031e-01  6.6332e-03  0:01:04 1850
   151  6.1434e-03  6.4333e-03  2.1506e-03  2.6391e-01  6.1421e-03  0:00:51 1849
   152  5.6107e-03  6.2083e-03  2.0770e-03  2.2666e-01  5.6095e-03  0:00:41 1848
   153  5.0443e-03  6.0066e-03  1.9900e-03  1.8997e-01  5.0433e-03  0:00:33 1847
   154  4.4524e-03  5.8361e-03  1.8911e-03  1.5512e-01  4.4516e-03  0:00:26 1846

  iter  continuity  x-velocity  y-velocity  z-velocity      energy     time/iter
   155  3.8439e-03  5.6996e-03  1.7823e-03  1.2318e-01  3.8432e-03  0:00:21 1845
   156  3.2286e-03  5.6019e-03  1.6654e-03  9.7471e-02  3.2281e-03  0:00:17 1844
   157  2.6191e-03  5.5497e-03  1.5429e-03  8.3411e-02  2.6188e-03  0:06:22 1843
   158  2.0331e-03  5.5411e-03  1.4175e-03  8.5420e-02  2.0329e-03  0:05:05 1842
   159  1.5028e-03  5.5727e-03  1.2925e-03  1.0011e-01  1.5026e-03  0:04:04 1841
   160  1.1032e-03  5.6407e-03  1.1709e-03  1.2147e-01  1.1028e-03  0:03:15 1840
   161  9.8005e-04  5.7343e-03  1.0566e-03  1.4544e-01  9.7916e-04  0:02:36 1839
   162  1.1889e-03  5.8456e-03  9.5463e-04  1.6952e-01  1.1876e-03  0:02:05 1838
   163  1.5749e-03  5.9674e-03  8.7058e-04  1.9223e-01  1.5735e-03  0:01:40 1837
   164  2.0126e-03  6.0910e-03  8.0919e-04  2.1240e-01  2.0111e-03  0:01:20 1836
   165  2.4500e-03  6.2067e-03  7.7394e-04  2.3044e-01  2.4484e-03  0:01:04 1835

  iter  continuity  x-velocity  y-velocity  z-velocity      energy     time/iter
   166  2.8658e-03  6.3123e-03  7.6765e-04  2.4676e-01  2.8641e-03  0:00:51 1834
   167  3.2490e-03  6.4037e-03  7.8637e-04  2.5982e-01  3.2473e-03  0:00:41 1833
   168  3.5934e-03  6.4781e-03  8.2631e-04  2.6944e-01  3.5916e-03  0:00:33 1832
   169  3.8947e-03  6.5325e-03  8.8019e-04  2.7674e-01  3.8930e-03  0:00:26 1831
   170  4.1505e-03  6.5645e-03  9.4151e-04  2.8252e-01  4.1487e-03  0:00:21 1830
   171  4.3592e-03  6.5712e-03  1.0046e-03  2.8554e-01  4.3575e-03  0:06:22 1829
   172  4.5198e-03  6.5541e-03  1.0659e-03  2.8651e-01  4.5181e-03  0:05:06 1828
   173  4.6316e-03  6.5123e-03  1.1227e-03  2.8487e-01  4.6299e-03  0:04:05 1827
   174  4.6948e-03  6.4449e-03  1.1725e-03  2.8120e-01  4.6932e-03  0:03:16 1826
   175  4.7102e-03  6.3519e-03  1.2138e-03  2.7459e-01  4.7087e-03  0:02:36 1825
   176  4.6792e-03  6.2376e-03  1.2456e-03  2.6504e-01  4.6778e-03  0:02:05 1824

  iter  continuity  x-velocity  y-velocity  z-velocity      energy     time/iter
   177  4.6035e-03  6.1054e-03  1.2676e-03  2.5292e-01  4.6022e-03  0:01:40 1823
   178  4.4854e-03  5.9571e-03  1.2797e-03  2.3916e-01  4.4842e-03  0:01:20 1822
   179  4.3273e-03  5.8001e-03  1.2811e-03  2.2367e-01  4.3262e-03  0:01:04 1821
   180  4.1318e-03  5.6396e-03  1.2725e-03  2.0660e-01  4.1308e-03  0:00:51 1820
   181  3.9018e-03  5.4771e-03  1.2541e-03  1.8821e-01  3.9009e-03  0:00:41 1819
   182  3.6402e-03  5.3144e-03  1.2265e-03  1.6932e-01  3.6394e-03  0:00:33 1818
   183  3.3523e-03  5.1625e-03  1.1897e-03  1.4991e-01  3.3516e-03  0:00:26 1817
   184  3.0418e-03  5.0231e-03  1.1449e-03  1.3052e-01  3.0412e-03  0:00:21 1816
   185  2.7134e-03  4.9008e-03  1.0934e-03  1.1228e-01  2.7129e-03  0:00:17 1815
   186  2.3720e-03  4.7978e-03  1.0356e-03  9.5758e-02  2.3715e-03  0:06:16 1814
   187  2.0232e-03  4.7156e-03  9.7280e-04  8.2032e-02  2.0229e-03  0:05:01 1813

  iter  continuity  x-velocity  y-velocity  z-velocity      energy     time/iter
   188  1.6736e-03  4.6499e-03  9.0636e-04  7.2387e-02  1.6734e-03  0:04:00 1812
   189  1.3360e-03  4.6057e-03  8.3826e-04  6.8709e-02  1.3358e-03  0:03:12 1811
   190  1.0295e-03  4.5798e-03  7.6992e-04  7.1192e-02  1.0294e-03  0:02:34 1810
   191  7.9498e-04  4.5802e-03  7.0406e-04  7.8051e-02  7.9503e-04  0:02:03 1809
   192  7.0192e-04  4.5993e-03  6.4270e-04  8.7612e-02  7.0203e-04  0:01:38 1808
   193  7.8945e-04  4.6317e-03  5.8883e-04  9.8340e-02  7.8952e-04  0:01:19 1807
   194  9.9840e-04  4.6746e-03  5.4470e-04  1.0929e-01  9.9839e-04  0:01:03 1806
   195  1.2558e-03  4.7209e-03  5.1282e-04  1.1958e-01  1.2557e-03  0:00:50 1805
   196  1.5237e-03  4.7690e-03  4.9531e-04  1.2885e-01  1.5235e-03  0:00:40 1804
   197  1.7846e-03  4.8177e-03  4.9382e-04  1.3690e-01  1.7844e-03  0:00:32 1803
   198  2.0292e-03  4.8621e-03  5.0509e-04  1.4330e-01  2.0289e-03  0:00:26 1802

  iter  continuity  x-velocity  y-velocity  z-velocity      energy     time/iter
   199  2.2515e-03  4.8960e-03  5.2543e-04  1.4765e-01  2.2511e-03  0:00:21 1801
   200  2.4479e-03  4.9181e-03  5.5254e-04  1.4981e-01  2.4474e-03  0:00:16 1800
   201  2.6159e-03  4.9299e-03  5.8274e-04  1.5103e-01  2.6153e-03  0:06:13 1799
   202  2.7534e-03  4.9280e-03  6.1393e-04  1.5100e-01  2.7527e-03  0:04:58 1798
   203  2.8593e-03  4.9138e-03  6.4397e-04  1.4982e-01  2.8586e-03  0:03:58 1797
   204  2.9334e-03  4.8895e-03  6.7054e-04  1.4781e-01  2.9325e-03  0:03:11 1796
   205  2.9748e-03  4.8554e-03  6.9221e-04  1.4464e-01  2.9739e-03  0:02:32 1795
   206  2.9838e-03  4.8101e-03  7.0876e-04  1.4085e-01  2.9829e-03  0:02:02 1794
   207  2.9610e-03  4.7563e-03  7.1935e-04  1.3535e-01  2.9600e-03  0:01:37 1793
   208  2.9073e-03  4.6961e-03  7.2408e-04  1.2839e-01  2.9063e-03  0:01:18 1792
   209  2.8240e-03  4.6308e-03  7.2278e-04  1.1988e-01  2.8229e-03  0:01:02 1791

  iter  continuity  x-velocity  y-velocity  z-velocity      energy     time/iter
   210  2.7126e-03  4.5617e-03  7.1569e-04  1.1034e-01  2.7115e-03  0:00:50 1790
   211  2.5751e-03  4.4892e-03  7.0248e-04  9.9757e-02  2.5740e-03  0:00:40 1789
   212  2.4140e-03  4.4176e-03  6.8278e-04  8.8803e-02  2.4128e-03  0:00:32 1788
   213  2.2316e-03  4.3484e-03  6.5840e-04  7.8156e-02  2.2304e-03  0:00:25 1787
   214  2.0310e-03  4.2818e-03  6.3116e-04  6.7963e-02  2.0297e-03  0:00:20 1786
   215  1.8158e-03  4.2249e-03  5.9935e-04  5.8579e-02  1.8144e-03  0:00:16 1785
   216  1.5897e-03  4.1781e-03  5.6612e-04  5.0444e-02  1.5882e-03  0:06:10 1784
   217  1.3552e-03  4.1397e-03  5.3344e-04  4.4279e-02  1.3536e-03  0:04:56 1783
   218  1.1204e-03  4.1146e-03  5.0193e-04  4.0670e-02  1.1186e-03  0:03:56 1782
   219  8.9342e-04  4.1027e-03  4.7355e-04  4.0187e-02  8.9135e-04  0:03:09 1781
   220  6.9033e-04  4.1026e-03  4.4969e-04  4.2625e-02  6.8783e-04  0:02:31 1780

  iter  continuity  x-velocity  y-velocity  z-velocity      energy     time/iter
   221  5.4081e-04  4.1119e-03  4.3234e-04  4.7196e-02  5.3783e-04  0:02:01 1779
   222  4.9233e-04  4.1248e-03  4.2202e-04  5.2950e-02  4.8921e-04  0:01:37 1778
   223  5.6335e-04  4.1410e-03  4.1988e-04  5.8990e-02  5.6071e-04  0:01:17 1777
   224  7.0978e-04  4.1594e-03  4.2386e-04  6.4897e-02  7.0769e-04  0:01:02 1776
   225  8.8408e-04  4.1773e-03  4.3549e-04  7.0487e-02  8.8240e-04  0:00:49 1775
   226  1.0620e-03  4.1873e-03  4.5381e-04  7.5531e-02  1.0605e-03  0:00:39 1774
   227  1.2329e-03  4.1973e-03  4.7553e-04  7.9766e-02  1.2316e-03  0:00:32 1773
   228  1.3895e-03  4.2064e-03  5.0101e-04  8.3432e-02  1.3884e-03  0:00:25 1772
   229  1.5292e-03  4.2110e-03  5.2480e-04  8.6392e-02  1.5282e-03  0:06:14 1771
   230  1.6496e-03  4.2087e-03  5.4834e-04  8.8764e-02  1.6487e-03  0:04:59 1770
   231  1.7472e-03  4.2026e-03  5.6893e-04  9.0340e-02  1.7464e-03  0:03:59 1769

  iter  continuity  x-velocity  y-velocity  z-velocity      energy     time/iter
   232  1.8210e-03  4.1917e-03  5.8799e-04  9.0726e-02  1.8202e-03  0:03:11 1768
   233  1.8705e-03  4.1750e-03  6.0459e-04  9.0456e-02  1.8698e-03  0:02:33 1767
   234  1.8956e-03  4.1442e-03  6.1629e-04  8.8412e-02  1.8950e-03  0:02:02 1766
   235  1.8975e-03  4.1135e-03  6.2370e-04  8.7477e-02  1.8970e-03  0:01:38 1765
   236  1.8768e-03  4.0856e-03  6.2596e-04  8.5301e-02  1.8763e-03  0:01:18 1764
   237  1.8338e-03  4.0560e-03  6.2349e-04  8.1768e-02  1.8335e-03  0:01:03 1763
   238  1.7697e-03  4.0222e-03  6.1660e-04  7.7089e-02  1.7694e-03  0:00:50 1762
   239  1.6863e-03  3.9884e-03  6.0680e-04  7.1472e-02  1.6861e-03  0:00:40 1761
   240  1.5851e-03  3.9583e-03  5.9088e-04  6.5176e-02  1.5850e-03  0:06:24 1760
   241  1.4674e-03  3.9318e-03  5.7132e-04  5.8577e-02  1.4674e-03  0:05:07 1759
   242  1.3354e-03  3.9060e-03  5.4843e-04  5.1868e-02  1.3356e-03  0:04:05 1758

  iter  continuity  x-velocity  y-velocity  z-velocity      energy     time/iter
   243  1.1928e-03  3.8847e-03  5.2326e-04  4.5189e-02  1.1931e-03  0:03:16 1757
   244  1.0422e-03  3.8712e-03  4.9410e-04  3.8605e-02  1.0426e-03  0:02:37 1756
   245  8.8664e-04  3.8648e-03  4.6436e-04  3.3574e-02  8.8736e-04  0:02:05 1755
   246  7.3114e-04  3.8640e-03  4.3280e-04  2.9012e-02  7.3216e-04  0:01:40 1754
   247  5.8274e-04  3.8634e-03  4.0059e-04  2.4877e-02  5.8415e-04  0:01:20 1753
   248  4.5338e-04  3.8675e-03  3.6868e-04  2.2251e-02  4.5529e-04  0:01:04 1752
   249  3.6634e-04  3.8791e-03  3.3834e-04  2.1796e-02  3.6873e-04  0:00:51 1751
   250  3.5543e-04  3.8904e-03  3.1193e-04  2.3280e-02  3.5789e-04  0:00:41 1750
   251  4.1981e-04  3.8974e-03  2.8818e-04  2.6443e-02  4.2180e-04  0:06:23 1749
   252  5.2832e-04  3.9083e-03  2.7025e-04  3.0451e-02  5.2974e-04  0:05:06 1748
   253  6.5108e-04  3.9195e-03  2.5946e-04  3.4605e-02  6.5210e-04  0:04:05 1747

  iter  continuity  x-velocity  y-velocity  z-velocity      energy     time/iter
   254  7.7394e-04  3.9287e-03  2.5742e-04  3.8532e-02  7.7470e-04  0:03:16 1746
   255  8.9023e-04  3.9324e-03  2.6195e-04  4.2095e-02  8.9080e-04  0:02:36 1745
   256  9.9700e-04  3.9279e-03  2.7372e-04  4.5230e-02  9.9741e-04  0:02:05 1744
   257  1.0902e-03  3.9206e-03  2.8430e-04  4.7771e-02  1.0905e-03  0:01:40 1743
   258  1.1692e-03  3.9167e-03  3.0237e-04  4.9783e-02  1.1694e-03  0:01:20 1742
   259  1.2345e-03  3.9106e-03  3.2036e-04  5.1393e-02  1.2347e-03  0:01:04 1741
   260  1.2844e-03  3.8991e-03  3.3713e-04  5.2539e-02  1.2845e-03  0:00:51 1740
   261  1.3177e-03  3.8823e-03  3.5291e-04  5.3241e-02  1.3177e-03  0:00:41 1739
   262  1.3347e-03  3.8639e-03  3.6720e-04  5.3449e-02  1.3346e-03  0:00:33 1738
   263  1.3352e-03  3.8406e-03  3.7763e-04  5.3210e-02  1.3351e-03  0:00:26 1737
   264  1.3202e-03  3.8108e-03  3.8675e-04  5.2530e-02  1.3200e-03  0:06:08 1736

  iter  continuity  x-velocity  y-velocity  z-velocity      energy     time/iter
   265  1.2900e-03  3.7803e-03  3.9082e-04  5.1388e-02  1.2897e-03  0:04:54 1735
   266  1.2445e-03  3.7472e-03  3.9248e-04  4.9879e-02  1.2442e-03  0:03:55 1734
   267  1.1846e-03  3.7166e-03  3.9147e-04  4.8024e-02  1.1843e-03  0:03:08 1733
   268  1.1130e-03  3.6876e-03  3.8923e-04  4.5835e-02  1.1126e-03  0:02:30 1732
   269  1.0303e-03  3.6507e-03  3.8226e-04  4.3230e-02  1.0298e-03  0:02:00 1731
   270  9.3866e-04  3.6189e-03  3.7192e-04  4.0294e-02  9.3808e-04  0:01:36 1730
   271  8.3830e-04  3.5918e-03  3.5976e-04  3.7145e-02  8.3763e-04  0:01:17 1729
   272  7.3130e-04  3.5674e-03  3.4583e-04  3.3714e-02  7.3053e-04  0:01:01 1728
   273  6.2027e-04  3.5448e-03  3.2984e-04  3.0045e-02  6.1935e-04  0:00:49 1727
   274  5.0807e-04  3.5235e-03  3.1247e-04  2.6279e-02  5.0693e-04  0:00:39 1726
   275  3.9966e-04  3.5067e-03  2.9678e-04  2.2446e-02  3.9825e-04  0:00:31 1725

  iter  continuity  x-velocity  y-velocity  z-velocity      energy     time/iter
   276  3.0389e-04  3.4931e-03  2.8015e-04  1.8706e-02  3.0209e-04  0:06:10 1724
   277  2.3777e-04  3.4765e-03  2.6157e-04  1.5386e-02  2.3545e-04  0:04:56 1723
   278  2.3282e-04  3.4632e-03  2.4425e-04  1.2492e-02  2.3038e-04  0:03:56 1722
   279  2.8270e-04  3.4507e-03  2.3000e-04  1.0721e-02  2.8067e-04  0:03:09 1721
   280  3.6379e-04  3.4434e-03  2.1896e-04  1.0409e-02  3.6220e-04  0:02:31 1720
   281  4.5467e-04  3.4369e-03  2.1198e-04  1.1388e-02  4.5340e-04  0:02:01 1719
   282  5.4233e-04  3.4265e-03  2.0544e-04  1.3221e-02  5.4116e-04  0:01:37 1718
   283  6.3227e-04  3.4223e-03  2.1036e-04  1.5421e-02  6.3120e-04  0:01:17 1717
   284  7.1466e-04  3.4182e-03  2.1504e-04  1.7704e-02  7.1372e-04  0:01:02 1716
   285  7.8717e-04  3.4128e-03  2.2493e-04  1.9856e-02  7.8634e-04  0:00:49 1715
   286  8.4948e-04  3.4062e-03  2.3644e-04  2.1891e-02  8.4875e-04  0:00:39 1714

  iter  continuity  x-velocity  y-velocity  z-velocity      energy     time/iter
   287  9.0103e-04  3.3986e-03  2.4869e-04  2.3727e-02  9.0039e-04  0:06:14 1713
   288  9.4105e-04  3.3888e-03  2.5955e-04  2.5331e-02  9.4048e-04  0:04:59 1712
   289  9.6774e-04  3.3728e-03  2.7038e-04  2.6709e-02  9.6720e-04  0:03:59 1711
   290  9.8442e-04  3.3601e-03  2.8122e-04  2.7799e-02  9.8392e-04  0:03:11 1710
   291  9.8592e-04  3.3524e-03  2.9290e-04  2.8569e-02  9.8547e-04  0:02:33 1709
   292  9.8009e-04  3.3497e-03  3.0246e-04  2.9303e-02  9.7973e-04  0:02:02 1708
   293  9.6301e-04  3.3413e-03  3.0875e-04  2.9707e-02  9.6275e-04  0:01:38 1707
   294  9.3484e-04  3.3276e-03  3.1167e-04  2.9736e-02  9.3466e-04  0:01:18 1706
   295  8.9612e-04  3.3107e-03  3.1234e-04  2.9393e-02  8.9599e-04  0:01:02 1705
   296  8.4747e-04  3.2855e-03  3.1267e-04  2.8793e-02  8.4738e-04  0:00:50 1704
   297  7.9163e-04  3.2719e-03  3.1417e-04  2.7979e-02  7.9164e-04  0:00:40 1703

  iter  continuity  x-velocity  y-velocity  z-velocity      energy     time/iter
   298  7.2848e-04  3.2632e-03  3.1088e-04  2.6871e-02  7.2860e-04  0:00:32 1702
   299  6.5863e-04  3.2550e-03  3.0365e-04  2.5437e-02  6.5883e-04  0:06:06 1701
   300  5.8287e-04  3.2443e-03  2.9350e-04  2.3803e-02  5.8314e-04  0:04:52 1700
   301  5.0351e-04  3.2327e-03  2.8275e-04  2.2002e-02  5.0384e-04  0:03:54 1699
   302  4.2322e-04  3.2236e-03  2.7242e-04  2.0095e-02  4.2363e-04  0:03:07 1698
   303  3.4484e-04  3.2178e-03  2.6212e-04  1.8209e-02  3.4537e-04  0:02:29 1697
   304  2.7294e-04  3.2135e-03  2.5039e-04  1.6455e-02  2.7363e-04  0:01:59 1696
   305  2.1551e-04  3.2090e-03  2.3798e-04  1.4763e-02  2.1633e-04  0:01:36 1695
   306  1.8849e-04  3.2051e-03  2.2690e-04  1.3117e-02  1.8936e-04  0:01:16 1694
   307  2.0348e-04  3.2026e-03  2.1562e-04  1.1353e-02  2.0421e-04  0:01:01 1693
   308  2.4906e-04  3.2016e-03  2.0524e-04  9.6939e-03  2.4956e-04  0:00:49 1692

  iter  continuity  x-velocity  y-velocity  z-velocity      energy     time/iter
   309  3.0870e-04  3.1990e-03  1.9668e-04  8.4288e-03  3.0898e-04  0:00:39 1691
   310  3.7239e-04  3.1884e-03  1.8846e-04  7.8664e-03  3.7247e-04  0:00:31 1690
   311  4.3826e-04  3.1807e-03  1.8360e-04  8.2253e-03  4.3820e-04  0:00:25 1689
   312  4.9919e-04  3.1744e-03  1.7996e-04  9.1012e-03  4.9902e-04  0:05:58 1688
   313  5.5387e-04  3.1683e-03  1.8222e-04  1.0517e-02  5.5364e-04  0:04:46 1687
   314  6.0236e-04  3.1645e-03  1.8946e-04  1.1649e-02  6.0210e-04  0:03:49 1686
   315  6.4416e-04  3.1581e-03  1.8903e-04  1.2396e-02  6.4386e-04  0:03:03 1685
   316  6.7768e-04  3.1460e-03  1.9051e-04  1.3049e-02  6.7736e-04  0:02:26 1684
   317  7.0316e-04  3.1332e-03  1.9615e-04  1.3656e-02  7.0283e-04  0:01:57 1683
   318  7.2075e-04  3.1209e-03  2.0009e-04  1.4193e-02  7.2041e-04  0:01:33 1682
   319  7.3014e-04  3.1081e-03  2.0384e-04  1.4632e-02  7.2977e-04  0:01:15 1681

  iter  continuity  x-velocity  y-velocity  z-velocity      energy     time/iter
   320  7.3133e-04  3.0950e-03  2.0846e-04  1.4973e-02  7.3093e-04  0:01:00 1680
   321  7.2443e-04  3.0813e-03  2.1176e-04  1.5155e-02  7.2400e-04  0:00:48 1679
   322  7.0932e-04  3.0629e-03  2.1266e-04  1.5138e-02  7.0886e-04  0:00:38 1678
   323  6.8743e-04  3.0505e-03  2.2423e-04  1.4979e-02  6.8698e-04  0:00:31 1677
   324  6.5791e-04  3.0298e-03  2.1488e-04  1.4654e-02  6.5742e-04  0:00:24 1676
   325  6.2176e-04  3.0110e-03  2.1539e-04  1.4191e-02  6.2127e-04  0:00:20 1675
   326  5.7984e-04  2.9962e-03  2.1379e-04  1.3623e-02  5.7935e-04  0:05:50 1674
   327  5.3365e-04  2.9879e-03  2.1802e-04  1.2952e-02  5.3320e-04  0:04:40 1673
   328  4.8376e-04  2.9763e-03  2.1166e-04  1.2212e-02  4.8329e-04  0:03:44 1672
   329  4.2942e-04  2.9602e-03  2.0447e-04  1.1442e-02  4.2891e-04  0:02:59 1671
   330  3.7061e-04  2.9419e-03  2.0327e-04  1.0698e-02  3.7014e-04  0:02:23 1670

  iter  continuity  x-velocity  y-velocity  z-velocity      energy     time/iter
   331  3.1712e-04  2.9342e-03  2.1245e-04  1.0009e-02  3.1684e-04  0:01:54 1669
   332  2.6666e-04  2.9242e-03  2.0143e-04  9.4574e-03  2.6652e-04  0:01:32 1668
   333  2.1474e-04  2.9068e-03  1.8876e-04  9.1147e-03  2.1467e-04  0:01:13 1667
   334  1.6348e-04  2.8833e-03  1.7936e-04  9.0482e-03  1.6342e-04  0:00:59 1666
   335  1.2588e-04  2.8575e-03  1.7578e-04  9.3235e-03  1.2586e-04  0:00:47 1665
   336  1.2378e-04  2.8393e-03  1.7188e-04  1.0031e-02  1.2385e-04  0:00:37 1664
   337  1.4925e-04  2.8263e-03  1.6723e-04  1.1243e-02  1.4935e-04  0:00:30 1663
   338  1.8984e-04  2.8159e-03  1.6506e-04  1.2181e-02  1.8993e-04  0:00:24 1662
   339  2.3433e-04  2.8071e-03  1.6483e-04  1.2678e-02  2.3439e-04  0:00:19 1661
   340  2.7736e-04  2.7973e-03  1.6601e-04  1.3017e-02  2.7738e-04  0:05:47 1660
   341  3.1744e-04  2.7855e-03  1.6864e-04  1.2988e-02  3.1744e-04  0:04:38 1659

  iter  continuity  x-velocity  y-velocity  z-velocity      energy     time/iter
   342  3.5450e-04  2.7738e-03  1.7197e-04  1.4005e-02  3.5448e-04  0:03:42 1658
   343  3.8731e-04  2.7628e-03  1.7591e-04  1.5537e-02  3.8727e-04  0:02:57 1657
   344  4.1416e-04  2.7485e-03  1.8103e-04  1.8232e-02  4.1411e-04  0:02:22 1656
   345  4.3503e-04  2.7333e-03  1.8784e-04  1.9219e-02  4.3499e-04  0:01:53 1655
   346  4.5301e-04  2.7314e-03  1.9470e-04  1.8929e-02  4.5298e-04  0:01:31 1654
   347  4.6546e-04  2.7318e-03  1.9992e-04  1.7850e-02  4.6541e-04  0:01:13 1653
   348  4.7115e-04  2.7263e-03  2.0463e-04  1.6519e-02  4.7106e-04  0:00:58 1652
   349  4.7084e-04  2.7146e-03  2.0834e-04  1.5446e-02  4.7070e-04  0:00:46 1651
   350  4.6477e-04  2.7005e-03  2.1207e-04  1.4438e-02  4.6459e-04  0:00:37 1650
   351  4.5345e-04  2.6863e-03  2.1500e-04  1.3609e-02  4.5322e-04  0:00:30 1649
   352  4.3744e-04  2.6725e-03  2.1680e-04  1.3093e-02  4.3717e-04  0:05:53 1648

  iter  continuity  x-velocity  y-velocity  z-velocity      energy     time/iter
   353  4.1713e-04  2.6589e-03  2.1729e-04  1.2993e-02  4.1681e-04  0:04:42 1647
   354  3.9265e-04  2.6450e-03  2.1698e-04  1.2754e-02  3.9228e-04  0:03:46 1646
   355  3.6463e-04  2.6309e-03  2.1705e-04  1.3007e-02  3.6422e-04  0:03:01 1645
   356  3.3425e-04  2.6178e-03  2.1415e-04  1.3416e-02  3.3375e-04  0:02:24 1644
   357  3.0161e-04  2.6048e-03  2.1043e-04  1.3973e-02  3.0098e-04  0:01:55 1643
   358  2.6716e-04  2.5910e-03  2.0601e-04  1.4552e-02  2.6638e-04  0:01:32 1642
   359  2.3317e-04  2.5774e-03  2.0184e-04  1.5230e-02  2.3219e-04  0:01:14 1641
   360  2.0019e-04  2.5643e-03  1.9690e-04  1.5938e-02  1.9894e-04  0:00:59 1640
   361  1.6971e-04  2.5511e-03  1.9215e-04  1.3480e-02  1.6813e-04  0:00:47 1639
   362  1.4483e-04  2.5385e-03  1.8737e-04  1.2876e-02  1.4287e-04  0:00:38 1638
   363  1.2953e-04  2.5261e-03  1.8235e-04  1.3457e-02  1.2721e-04  0:00:30 1637

  iter  continuity  x-velocity  y-velocity  z-velocity      energy     time/iter
   364  1.2563e-04  2.5119e-03  1.7773e-04  1.6930e-02  1.2317e-04  0:00:24 1636
   365  1.3458e-04  2.4974e-03  1.7460e-04  2.0932e-02  1.3227e-04  0:00:19 1635
   366  1.5461e-04  2.4844e-03  1.6942e-04  2.3725e-02  1.5254e-04  0:05:42 1634
   367  1.7931e-04  2.4709e-03  1.6427e-04  2.5183e-02  1.7746e-04  0:04:34 1633
   368  2.0554e-04  2.4569e-03  1.6004e-04  2.5715e-02  2.0387e-04  0:03:39 1632
   369  2.3151e-04  2.4431e-03  1.5663e-04  2.6012e-02  2.2999e-04  0:02:55 1631
   370  2.5569e-04  2.4290e-03  1.5397e-04  2.6573e-02  2.5429e-04  0:02:20 1630
   371  2.7728e-04  2.4148e-03  1.5143e-04  2.6974e-02  2.7598e-04  0:01:52 1629
   372  2.9527e-04  2.3982e-03  1.5194e-04  2.7362e-02  2.9410e-04  0:01:29 1628
   373  3.1124e-04  2.3830e-03  1.5077e-04  2.7859e-02  3.1017e-04  0:01:11 1627
   374  3.2386e-04  2.3680e-03  1.4909e-04  2.9354e-02  3.2285e-04  0:00:57 1626

  iter  continuity  x-velocity  y-velocity  z-velocity      energy     time/iter
   375  3.3275e-04  2.3523e-03  1.4870e-04  3.0748e-02  3.3180e-04  0:00:46 1625
   376  3.3803e-04  2.3358e-03  1.4903e-04  3.1402e-02  3.3715e-04  0:00:37 1624
   377  3.3959e-04  2.3183e-03  1.4869e-04  3.1785e-02  3.3876e-04  0:00:29 1623
   378  3.3703e-04  2.2994e-03  1.4787e-04  3.2229e-02  3.3623e-04  0:05:48 1622
   379  3.3136e-04  2.2806e-03  1.4742e-04  3.1240e-02  3.3058e-04  0:04:38 1621
   380  3.2262e-04  2.2620e-03  1.4739e-04  3.5933e-02  3.2187e-04  0:03:42 1620
   381  3.1125e-04  2.2442e-03  1.4733e-04  4.0039e-02  3.1053e-04  0:02:58 1619
   382  2.9717e-04  2.2263e-03  1.4700e-04  4.3647e-02  2.9647e-04  0:02:22 1618
   383  2.8039e-04  2.2085e-03  1.4656e-04  4.7382e-02  2.7972e-04  0:01:54 1617
   384  2.6126e-04  2.1906e-03  1.4617e-04  4.8365e-02  2.6059e-04  0:01:31 1616
   385  2.3988e-04  2.1713e-03  1.4586e-04  4.8136e-02  2.3921e-04  0:01:13 1615

  iter  continuity  x-velocity  y-velocity  z-velocity      energy     time/iter
   386  2.1723e-04  2.1528e-03  1.4504e-04  4.6435e-02  2.1656e-04  0:00:58 1614
   387  1.9272e-04  2.1348e-03  1.4393e-04  4.3422e-02  1.9205e-04  0:00:46 1613
   388  1.6898e-04  2.1192e-03  1.4357e-04  4.0431e-02  1.6830e-04  0:00:37 1612
   389  1.4718e-04  2.1062e-03  1.4301e-04  3.8066e-02  1.4647e-04  0:00:30 1611
   390  1.2711e-04  2.0927e-03  1.4311e-04  3.6645e-02  1.2636e-04  0:00:24 1610
   391  1.1021e-04  2.0791e-03  1.4317e-04  3.6690e-02  1.0938e-04  0:05:41 1609
   392  9.8785e-05  2.0653e-03  1.4356e-04  3.7095e-02  9.7901e-05  0:04:32 1608
   393  9.4855e-05  2.0514e-03  1.4391e-04  3.8352e-02  9.3974e-05  0:03:38 1607
   394  9.9371e-05  2.0376e-03  1.4505e-04  4.0520e-02  9.8562e-05  0:02:54 1606
   395  1.0980e-04  2.0236e-03  1.4639e-04  4.2822e-02  1.0909e-04  0:02:19 1605
   396  1.2378e-04  2.0092e-03  1.4799e-04  4.6712e-02  1.2316e-04  0:01:51 1604

  iter  continuity  x-velocity  y-velocity  z-velocity      energy     time/iter
   397  1.3950e-04  1.9944e-03  1.4967e-04  5.2102e-02  1.3895e-04  0:01:29 1603
   398  1.5547e-04  1.9790e-03  1.5147e-04  5.6455e-02  1.5499e-04  0:01:11 1602
   399  1.7068e-04  1.9626e-03  1.5335e-04  6.0544e-02  1.7024e-04  0:00:57 1601
   400  1.8464e-04  1.9457e-03  1.5524e-04  4.5886e-02  1.8425e-04  0:00:45 1600
   401  1.9718e-04  1.9285e-03  1.5713e-04  3.9327e-02  1.9682e-04  0:00:36 1599
   402  2.0783e-04  1.9108e-03  1.5907e-04  3.7949e-02  2.0748e-04  0:00:29 1598
   403  2.1634e-04  1.8923e-03  1.6098e-04  3.9989e-02  2.1601e-04  0:00:23 1597
   404  2.2200e-04  1.8689e-03  1.6284e-04  5.3944e-02  2.2166e-04  0:05:38 1596
   405  2.2596e-04  1.8469e-03  1.6475e-04  7.3948e-02  2.2562e-04  0:04:30 1595
   406  2.2780e-04  1.8251e-03  1.6652e-04  8.5066e-02  2.2746e-04  0:03:36 1594
   407  2.2748e-04  1.8034e-03  1.6809e-04  8.5059e-02  2.2713e-04  0:02:53 1593

  iter  continuity  x-velocity  y-velocity  z-velocity      energy     time/iter
   408  2.2500e-04  1.7813e-03  1.6944e-04  7.6734e-02  2.2464e-04  0:02:18 1592
   409  2.2004e-04  1.7573e-03  1.7050e-04  6.6203e-02  2.1966e-04  0:01:50 1591
   410  2.1349e-04  1.7339e-03  1.7107e-04  5.8300e-02  2.1309e-04  0:01:28 1590
   411  2.0557e-04  1.7110e-03  1.7131e-04  5.1450e-02  2.0515e-04  0:01:11 1589
   412  1.9648e-04  1.6885e-03  1.7123e-04  4.7014e-02  1.9603e-04  0:00:56 1588
   413  1.8651e-04  1.6659e-03  1.7081e-04  4.5336e-02  1.8602e-04  0:00:45 1587
   414  1.7603e-04  1.6433e-03  1.7004e-04  4.5856e-02  1.7549e-04  0:00:36 1586
   415  1.6517e-04  1.6191e-03  1.6886e-04  4.7005e-02  1.6458e-04  0:00:29 1585
   416  1.5466e-04  1.5947e-03  1.6762e-04  4.6776e-02  1.5400e-04  0:00:23 1584
   417  1.4527e-04  1.5709e-03  1.6593e-04  4.5858e-02  1.4453e-04  0:00:18 1583
   418  1.3828e-04  1.5481e-03  1.6427e-04  4.4710e-02  1.3747e-04  0:05:31 1582

  iter  continuity  x-velocity  y-velocity  z-velocity      energy     time/iter
   419  1.3339e-04  1.5262e-03  1.6221e-04  4.3696e-02  1.3251e-04  0:04:25 1581
   420  1.3061e-04  1.5038e-03  1.6001e-04  4.2828e-02  1.2968e-04  0:03:32 1580
   421  1.3046e-04  1.4821e-03  1.5770e-04  4.2130e-02  1.2949e-04  0:02:49 1579
   422  1.3287e-04  1.4603e-03  1.5520e-04  4.1682e-02  1.3189e-04  0:02:15 1578
   423  1.3741e-04  1.4418e-03  1.5165e-04  4.2034e-02  1.3646e-04  0:01:48 1577
   424  1.4449e-04  1.4241e-03  1.4870e-04  4.3889e-02  1.4356e-04  0:01:26 1576
   425  1.5320e-04  1.4058e-03  1.4575e-04  4.6312e-02  1.5229e-04  0:01:09 1575
   426  1.6254e-04  1.3879e-03  1.4326e-04  4.9135e-02  1.6166e-04  0:00:55 1574
   427  1.7208e-04  1.3707e-03  1.4106e-04  5.2773e-02  1.7124e-04  0:00:44 1573
   428  1.8020e-04  1.3467e-03  1.3882e-04  5.7228e-02  1.7939e-04  0:00:35 1572
   429  1.8787e-04  1.3226e-03  1.3575e-04  6.2366e-02  1.8709e-04  0:00:28 1571

  iter  continuity  x-velocity  y-velocity  z-velocity      energy     time/iter
   430  1.9496e-04  1.2993e-03  1.3312e-04  6.8504e-02  1.9421e-04  0:00:23 1570
   431  2.0108e-04  1.2770e-03  1.3137e-04  7.5350e-02  2.0035e-04  0:00:18 1569
   432  2.0608e-04  1.2551e-03  1.2949e-04  5.9354e-02  2.0538e-04  0:05:28 1568
   433  2.0986e-04  1.2339e-03  1.2754e-04  7.0783e-02  2.0918e-04  0:04:22 1567
   434  2.1230e-04  1.2133e-03  1.2582e-04  7.3018e-02  2.1163e-04  0:03:30 1566
   435  2.1334e-04  1.1933e-03  1.2438e-04  7.1946e-02  2.1268e-04  0:02:48 1565
   436  2.1299e-04  1.1739e-03  1.2319e-04  6.9605e-02  2.1235e-04  0:02:14 1564
   437  2.1132e-04  1.1552e-03  1.2224e-04  6.4970e-02  2.1069e-04  0:01:47 1563
   438  2.0837e-04  1.1372e-03  1.2154e-04  5.9968e-02  2.0776e-04  0:01:26 1562
   439  2.0424e-04  1.1198e-03  1.2107e-04  5.5845e-02  2.0363e-04  0:01:08 1561
   440  1.9903e-04  1.1031e-03  1.2082e-04  5.3317e-02  1.9843e-04  0:00:55 1560

  iter  continuity  x-velocity  y-velocity  z-velocity      energy     time/iter
   441  1.9288e-04  1.0873e-03  1.2080e-04  5.3163e-02  1.9229e-04  0:00:44 1559
   442  1.8595e-04  1.0723e-03  1.2098e-04  5.5773e-02  1.8538e-04  0:00:35 1558
   443  1.7845e-04  1.0581e-03  1.2135e-04  6.1935e-02  1.7789e-04  0:00:28 1557
   444  1.7063e-04  1.0455e-03  1.2195e-04  7.0012e-02  1.7007e-04  0:05:34 1556
   445  1.6237e-04  1.0302e-03  1.2266e-04  7.9344e-02  1.6181e-04  0:04:27 1555
   446  1.5441e-04  1.0153e-03  1.2336e-04  8.9219e-02  1.5385e-04  0:03:33 1554
   447  1.4676e-04  1.0009e-03  1.2443e-04  1.0370e-01  1.4621e-04  0:02:50 1553
   448  1.3967e-04  9.8637e-04  1.2560e-04  1.4526e-01  1.3912e-04  0:02:16 1552
   449  1.3368e-04  9.7417e-04  1.2720e-04  1.5114e-01  1.3315e-04  0:01:49 1551
   450  1.2870e-04  9.6109e-04  1.2872e-04  1.3528e-01  1.2817e-04  0:01:27 1550
   451  1.2444e-04  9.4551e-04  1.3013e-04  1.2258e-01  1.2392e-04  0:01:10 1549

  iter  continuity  x-velocity  y-velocity  z-velocity      energy     time/iter
   452  1.2117e-04  9.2791e-04  1.3181e-04  1.1718e-01  1.2064e-04  0:00:56 1548
   453  1.1895e-04  9.0896e-04  1.3337e-04  1.1862e-01  1.1843e-04  0:00:45 1547
   454  1.1824e-04  8.9116e-04  1.3483e-04  1.2325e-01  1.1773e-04  0:00:36 1546
   455  1.1870e-04  8.7386e-04  1.3619e-04  1.2932e-01  1.1821e-04  0:00:28 1545
   456  1.2006e-04  8.5680e-04  1.3749e-04  1.3691e-01  1.1959e-04  0:00:23 1544
   457  1.2212e-04  8.4015e-04  1.3902e-04  1.4635e-01  1.2166e-04  0:05:27 1543
   458  1.2460e-04  8.2404e-04  1.4056e-04  1.2121e-01  1.2417e-04  0:04:21 1542
   459  1.2719e-04  8.0835e-04  1.4207e-04  1.4475e-01  1.2676e-04  0:03:29 1541
   460  1.2976e-04  7.9347e-04  1.4351e-04  1.7067e-01  1.2934e-04  0:02:47 1540
   461  1.3218e-04  7.7952e-04  1.4484e-04  1.9071e-01  1.3177e-04  0:02:14 1539
   462  1.3431e-04  7.6657e-04  1.4607e-04  2.1452e-01  1.3391e-04  0:01:47 1538

  iter  continuity  x-velocity  y-velocity  z-velocity      energy     time/iter
   463  1.3601e-04  7.5501e-04  1.4721e-04  2.2585e-01  1.3561e-04  0:01:25 1537
   464  1.3724e-04  7.4407e-04  1.4823e-04  2.2798e-01  1.3684e-04  0:01:08 1536
   465  1.3799e-04  7.3370e-04  1.4910e-04  2.2290e-01  1.3758e-04  0:00:55 1535
   466  1.3826e-04  7.2348e-04  1.4978e-04  2.1639e-01  1.3784e-04  0:05:50 1534
   467  1.3806e-04  7.1338e-04  1.5028e-04  2.1089e-01  1.3763e-04  0:04:40 1533
   468  1.3749e-04  7.0316e-04  1.5061e-04  2.0414e-01  1.3705e-04  0:03:44 1532
   469  1.3660e-04  6.9100e-04  1.5077e-04  2.0954e-01  1.3613e-04  0:02:59 1531
   470  1.3540e-04  6.7940e-04  1.5061e-04  2.6905e-01  1.3492e-04  0:02:23 1530
   471  1.3404e-04  6.6790e-04  1.5030e-04  2.8290e-01  1.3354e-04  0:01:54 1529
   472  1.3259e-04  6.5641e-04  1.4980e-04  2.6914e-01  1.3206e-04  0:01:31 1528
   473  1.3088e-04  6.4293e-04  1.4911e-04  2.4609e-01  1.3034e-04  0:01:13 1527

  iter  continuity  x-velocity  y-velocity  z-velocity      energy     time/iter
   474  1.2882e-04  6.2305e-04  1.4813e-04  2.2514e-01  1.2825e-04  0:00:58 1526
   475  1.2731e-04  6.0419e-04  1.4675e-04  2.0541e-01  1.2672e-04  0:00:47 1525
   476  1.2626e-04  5.8631e-04  1.4527e-04  2.1340e-01  1.2564e-04  0:00:37 1524
   477  1.2563e-04  5.6938e-04  1.4374e-04  2.4154e-01  1.2499e-04  0:00:30 1523
   478  1.2547e-04  5.5334e-04  1.4213e-04  2.6671e-01  1.2481e-04  0:05:28 1522
   479  1.2578e-04  5.3820e-04  1.4042e-04  2.6770e-01  1.2510e-04  0:04:22 1521
   480  1.2651e-04  5.2385e-04  1.3863e-04  2.5955e-01  1.2583e-04  0:03:30 1520
   481  1.2764e-04  5.1026e-04  1.3679e-04  2.5034e-01  1.2694e-04  0:02:48 1519
   482  1.2907e-04  4.9742e-04  1.3492e-04  2.3937e-01  1.2838e-04  0:02:14 1518
   483  1.3074e-04  4.8527e-04  1.3302e-04  2.2592e-01  1.3004e-04  0:01:47 1517
   484  1.3254e-04  4.7378e-04  1.3113e-04  2.1361e-01  1.3184e-04  0:01:26 1516

  iter  continuity  x-velocity  y-velocity  z-velocity      energy     time/iter
   485  1.3436e-04  4.6287e-04  1.2924e-04  2.0046e-01  1.3367e-04  0:01:09 1515
   486  1.3612e-04  4.5255e-04  1.2738e-04  1.8879e-01  1.3543e-04  0:00:55 1514
   487  1.3774e-04  4.4277e-04  1.2555e-04  1.8037e-01  1.3706e-04  0:00:44 1513
   488  1.3914e-04  4.3346e-04  1.2378e-04  1.7606e-01  1.3846e-04  0:00:35 1512
   489  1.4024e-04  4.2459e-04  1.2206e-04  1.7447e-01  1.3957e-04  0:00:28 1511
   490  1.4098e-04  4.1614e-04  1.2041e-04  1.7856e-01  1.4032e-04  0:05:24 1510
   491  1.4133e-04  4.0813e-04  1.1884e-04  1.8872e-01  1.4067e-04  0:04:19 1509
   492  1.4124e-04  4.0058e-04  1.1729e-04  1.9671e-01  1.4059e-04  0:03:27 1508
   493  1.4069e-04  3.9350e-04  1.1584e-04  2.0265e-01  1.4005e-04  0:02:46 1507
   494  1.3969e-04  3.8683e-04  1.1450e-04  2.0657e-01  1.3906e-04  0:02:13 1506
   495  1.3824e-04  3.8060e-04  1.1325e-04  2.0872e-01  1.3762e-04  0:01:46 1505

  iter  continuity  x-velocity  y-velocity  z-velocity      energy     time/iter
   496  1.3636e-04  3.7477e-04  1.1208e-04  2.1266e-01  1.3574e-04  0:01:25 1504
   497  1.3407e-04  3.6928e-04  1.1100e-04  2.1427e-01  1.3346e-04  0:01:08 1503
   498  1.3140e-04  3.6404e-04  1.1000e-04  2.1179e-01  1.3080e-04  0:00:54 1502
   499  1.2838e-04  3.5834e-04  1.0908e-04  2.0506e-01  1.2778e-04  0:00:43 1501
   500  1.2505e-04  3.5223e-04  1.0821e-04  1.9959e-01  1.2446e-04  0:00:35 1500
   501  1.2150e-04  3.4625e-04  1.0743e-04  1.6455e-01  1.2091e-04  0:05:27 1499
   502  1.1777e-04  3.4049e-04  1.0671e-04  1.7485e-01  1.1719e-04  0:04:22 1498
   503  1.1399e-04  3.3522e-04  1.0603e-04  2.0463e-01  1.1342e-04  0:03:29 1497
   504  1.1021e-04  3.3026e-04  1.0542e-04  2.1853e-01  1.0964e-04  0:02:47 1496
   505  1.0648e-04  3.2551e-04  1.0488e-04  2.2309e-01  1.0592e-04  0:02:14 1495
   506  1.0289e-04  3.2092e-04  1.0439e-04  2.2162e-01  1.0234e-04  0:01:47 1494

  iter  continuity  x-velocity  y-velocity  z-velocity      energy     time/iter
   507  9.9512e-05  3.1647e-04  1.0395e-04  2.1688e-01  9.8964e-05  0:01:25 1493
   508  9.6395e-05  3.1209e-04  1.0354e-04  2.1046e-01  9.5856e-05  0:01:08 1492
   509  9.3595e-05  3.0779e-04  1.0316e-04  2.0413e-01  9.3066e-05  0:00:55 1491
   510  9.1147e-05  3.0357e-04  1.0280e-04  1.9881e-01  9.0629e-05  0:00:44 1490
   511  8.9072e-05  2.9919e-04  1.0246e-04  1.9444e-01  8.8566e-05  0:00:35 1489
   512  8.7366e-05  2.9485e-04  1.0211e-04  1.9064e-01  8.6875e-05  0:05:26 1488
   513  8.6014e-05  2.9058e-04  1.0177e-04  1.8698e-01  8.5536e-05  0:04:20 1487
   514  8.4982e-05  2.8632e-04  1.0143e-04  1.8324e-01  8.4519e-05  0:03:28 1486
   515  8.4226e-05  2.8203e-04  1.0107e-04  1.7918e-01  8.3778e-05  0:02:46 1485
   516  8.3694e-05  2.7772e-04  1.0069e-04  1.7536e-01  8.3260e-05  0:02:13 1484
   517  8.3312e-05  2.7335e-04  1.0028e-04  1.7178e-01  8.2891e-05  0:01:46 1483

  iter  continuity  x-velocity  y-velocity  z-velocity      energy     time/iter
   518  8.3036e-05  2.6901e-04  9.9847e-05  1.6753e-01  8.2627e-05  0:01:25 1482
   519  8.2817e-05  2.6472e-04  9.9373e-05  1.6214e-01  8.2419e-05  0:01:08 1481
   520  8.2603e-05  2.6045e-04  9.8858e-05  1.5572e-01  8.2214e-05  0:00:54 1480
   521  8.2353e-05  2.5619e-04  9.8298e-05  1.4840e-01  8.1971e-05  0:00:43 1479
   522  8.2034e-05  2.5197e-04  9.7690e-05  1.4166e-01  8.1658e-05  0:00:35 1478
   523  8.1625e-05  2.4779e-04  9.7028e-05  1.3591e-01  8.1253e-05  0:05:23 1477
   524  8.1105e-05  2.4335e-04  9.6311e-05  1.3091e-01  8.0735e-05  0:04:18 1476
   525  8.0490e-05  2.3909e-04  9.5535e-05  1.2648e-01  8.0120e-05  0:03:27 1475
   526  7.9674e-05  2.3317e-04  9.4686e-05  1.2231e-01  7.9303e-05  0:02:45 1474
   527  7.8699e-05  2.2470e-04  9.3747e-05  1.1808e-01  7.8325e-05  0:02:12 1473
   528  7.7928e-05  2.1969e-04  9.2765e-05  1.9148e-01  7.7551e-05  0:01:46 1472

  iter  continuity  x-velocity  y-velocity  z-velocity      energy     time/iter
   529  7.7167e-05  2.1583e-04  9.1763e-05  2.9367e-01  7.6785e-05  0:01:24 1471
   530  7.6432e-05  2.1265e-04  9.0718e-05  3.7311e-01  7.6045e-05  0:01:07 1470
   531  7.5700e-05  2.0984e-04  8.9627e-05  3.8869e-01  7.5308e-05  0:00:54 1469
   532  7.5007e-05  2.0727e-04  8.8488e-05  3.7130e-01  7.4609e-05  0:00:43 1468
   533  7.4392e-05  2.0493e-04  8.7305e-05  3.4601e-01  7.3988e-05  0:05:28 1467
   534  7.3889e-05  2.0281e-04  8.6081e-05  3.1852e-01  7.3479e-05  0:04:22 1466
   535  7.3518e-05  2.0091e-04  8.4820e-05  2.9241e-01  7.3103e-05  0:03:30 1465
   536  7.3290e-05  1.9922e-04  8.3528e-05  2.7128e-01  7.2871e-05  0:02:48 1464
   537  7.3205e-05  1.9773e-04  8.2210e-05  2.5443e-01  7.2784e-05  0:02:14 1463
   538  7.3254e-05  1.9643e-04  8.0873e-05  2.4246e-01  7.2832e-05  0:01:47 1462
   539  7.3421e-05  1.9534e-04  7.9519e-05  2.3247e-01  7.2999e-05  0:01:26 1461

  iter  continuity  x-velocity  y-velocity  z-velocity      energy     time/iter
   540  7.3682e-05  1.9445e-04  7.8158e-05  2.2457e-01  7.3261e-05  0:01:08 1460
   541  7.4005e-05  1.9377e-04  7.6796e-05  2.1746e-01  7.3587e-05  0:00:55 1459
   542  7.4358e-05  1.9330e-04  7.5440e-05  2.1208e-01  7.3943e-05  0:00:44 1458
   543  7.4704e-05  1.9301e-04  7.4096e-05  2.0944e-01  7.4293e-05  0:00:35 1457
   544  7.5008e-05  1.9293e-04  7.2769e-05  2.0668e-01  7.4601e-05  0:05:19 1456
   545  7.5236e-05  1.9307e-04  7.1466e-05  2.0569e-01  7.4835e-05  0:04:15 1455
   546  7.5358e-05  1.9341e-04  7.0192e-05  2.0744e-01  7.4962e-05  0:03:24 1454
   547  7.5343e-05  1.9393e-04  6.8950e-05  2.0579e-01  7.4954e-05  0:02:43 1453
   548  7.5165e-05  1.9466e-04  6.7746e-05  2.0519e-01  7.4782e-05  0:02:10 1452
   549  7.4811e-05  1.9560e-04  6.6584e-05  2.0860e-01  7.4434e-05  0:01:44 1451
   550  7.4275e-05  1.9678e-04  6.5469e-05  2.1762e-01  7.3904e-05  0:01:23 1450

  iter  continuity  x-velocity  y-velocity  z-velocity      energy     time/iter
   551  7.3555e-05  1.9819e-04  6.4402e-05  2.2863e-01  7.3190e-05  0:01:07 1449
   552  7.2645e-05  1.9976e-04  6.3384e-05  2.3855e-01  7.2286e-05  0:00:53 1448
   553  7.1557e-05  2.0114e-04  6.2413e-05  2.4724e-01  7.1205e-05  0:00:43 1447
   554  7.0365e-05  2.0212e-04  6.1486e-05  2.7367e-01  7.0019e-05  0:00:34 1446
   555  6.9093e-05  2.0365e-04  6.0628e-05  3.3982e-01  6.8754e-05  0:00:27 1445
   556  6.7483e-05  2.0438e-04  5.9856e-05  3.3841e-01  6.7149e-05  0:05:11 1444
   557  6.5663e-05  2.0460e-04  5.9124e-05  3.0983e-01  6.5334e-05  0:04:08 1443
   558  6.3737e-05  2.0470e-04  5.8411e-05  2.8005e-01  6.3412e-05  0:03:18 1442
   559  6.1760e-05  2.0480e-04  5.7721e-05  2.5747e-01  6.1440e-05  0:02:39 1441
   560  5.9771e-05  2.0499e-04  5.7057e-05  2.4543e-01  5.9456e-05  0:02:07 1440
   561  5.7800e-05  2.0525e-04  5.6418e-05  2.4017e-01  5.7490e-05  0:01:41 1439

  iter  continuity  x-velocity  y-velocity  z-velocity      energy     time/iter
   562  5.5860e-05  2.0554e-04  5.5784e-05  2.3676e-01  5.5555e-05  0:01:21 1438
   563  5.3989e-05  2.0625e-04  5.5150e-05  2.2073e-01  5.3690e-05  0:01:05 1437
   564  5.2201e-05  2.0780e-04  5.4480e-05  2.5063e-01  5.1907e-05  0:00:52 1436
   565  5.0506e-05  2.0989e-04  5.3902e-05  2.8333e-01  5.0219e-05  0:00:41 1435
   566  4.8932e-05  2.1234e-04  5.3395e-05  3.0587e-01  4.8651e-05  0:00:33 1434
   567  4.6339e-05  1.9970e-04  5.2887e-05  3.1282e-01  4.6059e-05  0:05:13 1433
   568  4.4764e-05  1.9154e-04  5.2343e-05  3.5623e-01  4.4490e-05  0:04:10 1432
   569  4.3723e-05  1.8797e-04  5.1916e-05  3.6937e-01  4.3457e-05  0:03:20 1431
   570  4.2875e-05  1.8632e-04  5.1572e-05  3.6654e-01  4.2617e-05  0:02:40 1430
   571  4.2143e-05  1.8566e-04  5.1260e-05  3.4683e-01  4.1893e-05  0:02:08 1429
   572  4.1529e-05  1.8464e-04  5.0947e-05  3.2716e-01  4.1287e-05  0:01:42 1428

  iter  continuity  x-velocity  y-velocity  z-velocity      energy     time/iter
   573  4.1216e-05  1.8256e-04  5.0587e-05  2.6209e-01  4.0982e-05  0:01:22 1427
   574  4.1050e-05  1.8118e-04  5.0141e-05  2.3407e-01  4.0825e-05  0:01:05 1426
   575  4.0775e-05  1.7933e-04  4.9731e-05  2.0796e-01  4.0556e-05  0:00:52 1425
   576  4.0437e-05  1.7703e-04  4.9320e-05  1.8336e-01  4.0225e-05  0:00:42 1424
   577  4.0121e-05  1.7467e-04  4.8904e-05  1.6997e-01  3.9914e-05  0:00:33 1423
   578  3.9829e-05  1.7230e-04  4.8475e-05  1.7305e-01  3.9627e-05  0:05:11 1422
   579  3.9563e-05  1.7014e-04  4.8031e-05  1.8605e-01  3.9366e-05  0:04:09 1421
   580  3.9299e-05  1.6823e-04  4.7575e-05  1.9152e-01  3.9106e-05  0:03:19 1420
   581  3.9021e-05  1.6650e-04  4.7109e-05  2.0713e-01  3.8831e-05  0:02:39 1419
   582  3.8725e-05  1.6493e-04  4.6630e-05  2.2745e-01  3.8538e-05  0:02:07 1418
   583  3.8397e-05  1.6343e-04  4.6128e-05  2.4892e-01  3.8211e-05  0:01:42 1417

  iter  continuity  x-velocity  y-velocity  z-velocity      energy     time/iter
   584  3.8056e-05  1.6222e-04  4.5599e-05  2.4511e-01  3.7872e-05  0:01:21 1416
   585  3.7668e-05  1.6109e-04  4.5030e-05  2.0453e-01  3.7484e-05  0:01:05 1415
   586  3.7309e-05  1.6064e-04  4.4443e-05  1.8157e-01  3.7124e-05  0:00:52 1414
   587  3.6975e-05  1.6078e-04  4.3863e-05  1.7157e-01  3.6789e-05  0:00:41 1413
   588  3.6664e-05  1.6139e-04  4.3291e-05  1.7122e-01  3.6477e-05  0:00:33 1412
   589  3.6382e-05  1.6238e-04  4.2721e-05  1.6394e-01  3.6194e-05  0:05:09 1411
   590  3.6134e-05  1.6371e-04  4.2153e-05  1.5647e-01  3.5945e-05  0:04:07 1410
   591  3.5924e-05  1.6528e-04  4.1585e-05  1.4932e-01  3.5734e-05  0:03:17 1409
   592  3.5757e-05  1.6702e-04  4.1018e-05  1.4595e-01  3.5565e-05  0:02:38 1408
   593  3.5639e-05  1.6884e-04  4.0451e-05  1.4348e-01  3.5446e-05  0:02:06 1407
   594  3.5564e-05  1.7059e-04  3.9882e-05  1.3935e-01  3.5370e-05  0:01:41 1406

  iter  continuity  x-velocity  y-velocity  z-velocity      energy     time/iter
   595  3.5524e-05  1.7215e-04  3.9312e-05  1.3214e-01  3.5330e-05  0:01:21 1405
   596  3.5511e-05  1.7338e-04  3.8737e-05  1.2529e-01  3.5316e-05  0:01:04 1404
   597  3.5512e-05  1.7415e-04  3.8155e-05  1.1991e-01  3.5318e-05  0:00:52 1403
   598  3.5443e-05  1.7344e-04  3.7552e-05  1.2281e-01  3.5248e-05  0:00:41 1402
   599  3.5096e-05  1.6741e-04  3.6877e-05  1.2313e-01  3.4900e-05  0:00:33 1401
   600  3.4928e-05  1.5993e-04  3.6142e-05  1.5795e-01  3.4732e-05  0:00:26 1400
   601  3.5021e-05  1.5504e-04  3.5448e-05  1.8139e-01  3.4827e-05  0:05:01 1399
   602  3.5045e-05  1.5062e-04  3.4800e-05  1.6968e-01  3.4852e-05  0:04:00 1398
   603  3.4985e-05  1.4650e-04  3.4164e-05  1.5216e-01  3.4793e-05  0:03:12 1397
   604  3.4860e-05  1.4276e-04  3.3535e-05  1.5122e-01  3.4670e-05  0:02:34 1396
   605  3.4685e-05  1.3947e-04  3.2921e-05  1.6952e-01  3.4497e-05  0:02:03 1395

  iter  continuity  x-velocity  y-velocity  z-velocity      energy     time/iter
   606  3.4452e-05  1.3665e-04  3.2327e-05  1.9236e-01  3.4266e-05  0:01:38 1394
   607  3.4173e-05  1.3427e-04  3.1759e-05  2.1089e-01  3.3989e-05  0:01:19 1393
   608  3.3843e-05  1.3228e-04  3.1220e-05  2.1929e-01  3.3662e-05  0:01:03 1392
   609  3.3454e-05  1.3061e-04  3.0710e-05  2.1998e-01  3.3275e-05  0:00:50 1391
   610  3.2998e-05  1.2923e-04  3.0228e-05  2.1584e-01  3.2822e-05  0:00:40 1390
   611  3.2472e-05  1.2808e-04  2.9773e-05  2.1007e-01  3.2298e-05  0:00:32 1389
   612  3.1876e-05  1.2711e-04  2.9342e-05  1.9987e-01  3.1705e-05  0:00:26 1388
   613  3.1215e-05  1.2628e-04  2.8934e-05  1.8833e-01  3.1046e-05  0:04:58 1387
   614  3.0495e-05  1.2556e-04  2.8547e-05  1.7296e-01  3.0328e-05  0:03:58 1386
   615  2.9723e-05  1.2492e-04  2.8179e-05  1.5661e-01  2.9559e-05  0:03:10 1385
   616  2.8911e-05  1.2434e-04  2.7828e-05  1.4215e-01  2.8749e-05  0:02:32 1384

  iter  continuity  x-velocity  y-velocity  z-velocity      energy     time/iter
   617  2.8068e-05  1.2382e-04  2.7495e-05  1.3004e-01  2.7908e-05  0:02:02 1383
   618  2.7208e-05  1.2334e-04  2.7178e-05  1.2100e-01  2.7051e-05  0:01:37 1382
   619  2.6344e-05  1.2289e-04  2.6878e-05  1.1448e-01  2.6188e-05  0:01:18 1381
   620  2.5489e-05  1.2248e-04  2.6595e-05  1.0949e-01  2.5335e-05  0:01:02 1380
   621  2.4657e-05  1.2210e-04  2.6327e-05  1.0593e-01  2.4505e-05  0:00:50 1379
   622  2.3860e-05  1.2173e-04  2.6074e-05  1.0351e-01  2.3711e-05  0:00:40 1378
   623  2.3110e-05  1.2139e-04  2.5835e-05  1.0147e-01  2.2964e-05  0:00:32 1377
   624  2.2418e-05  1.2107e-04  2.5608e-05  9.9461e-02  2.2274e-05  0:00:25 1376
   625  2.1790e-05  1.2075e-04  2.5391e-05  9.8247e-02  2.1650e-05  0:04:55 1375
   626  2.1233e-05  1.2044e-04  2.5182e-05  9.7754e-02  2.1096e-05  0:03:56 1374
   627  2.0734e-05  1.2002e-04  2.4972e-05  9.7556e-02  2.0600e-05  0:03:09 1373

  iter  continuity  x-velocity  y-velocity  z-velocity      energy     time/iter
   628  2.0257e-05  1.1917e-04  2.4735e-05  9.7327e-02  2.0126e-05  0:02:31 1372
   629  1.9893e-05  1.1863e-04  2.4509e-05  9.6988e-02  1.9765e-05  0:02:01 1371
   630  1.9602e-05  1.1822e-04  2.4295e-05  9.6297e-02  1.9478e-05  0:01:36 1370
   631  1.9371e-05  1.1787e-04  2.4089e-05  9.5575e-02  1.9250e-05  0:01:17 1369
   632  1.9186e-05  1.1756e-04  2.3888e-05  9.4770e-02  1.9070e-05  0:01:02 1368
   633  1.9037e-05  1.1731e-04  2.3691e-05  9.3709e-02  1.8924e-05  0:00:49 1367
   634  1.8913e-05  1.1709e-04  2.3495e-05  9.2317e-02  1.8802e-05  0:00:39 1366
   635  1.8803e-05  1.1691e-04  2.3300e-05  9.0537e-02  1.8695e-05  0:00:31 1365
   636  1.8699e-05  1.1677e-04  2.3103e-05  8.8688e-02  1.8594e-05  0:00:25 1364
   637  1.8595e-05  1.1664e-04  2.2903e-05  8.6761e-02  1.8491e-05  0:04:53 1363
   638  1.8483e-05  1.1653e-04  2.2696e-05  8.4882e-02  1.8381e-05  0:03:54 1362

  iter  continuity  x-velocity  y-velocity  z-velocity      energy     time/iter
   639  1.8362e-05  1.1644e-04  2.2484e-05  8.2833e-02  1.8260e-05  0:03:07 1361
   640  1.8230e-05  1.1640e-04  2.2265e-05  8.0825e-02  1.8130e-05  0:02:30 1360
   641  1.8088e-05  1.1638e-04  2.2042e-05  7.8738e-02  1.7988e-05  0:02:00 1359
   642  1.7937e-05  1.1640e-04  2.1814e-05  7.6605e-02  1.7837e-05  0:01:36 1358
   643  1.7780e-05  1.1645e-04  2.1581e-05  7.4371e-02  1.7680e-05  0:01:16 1357
   644  1.7621e-05  1.1653e-04  2.1345e-05  7.2041e-02  1.7520e-05  0:01:01 1356
   645  1.7456e-05  1.1651e-04  2.1101e-05  6.9667e-02  1.7354e-05  0:00:49 1355
   646  1.7301e-05  1.1648e-04  2.0852e-05  6.7242e-02  1.7199e-05  0:00:39 1354
   647  1.7166e-05  1.1648e-04  2.0602e-05  6.4735e-02  1.7062e-05  0:00:31 1353
   648  1.7050e-05  1.1650e-04  2.0349e-05  6.2270e-02  1.6946e-05  0:04:55 1352
   649  1.6959e-05  1.1654e-04  2.0095e-05  5.9986e-02  1.6854e-05  0:03:56 1351

  iter  continuity  x-velocity  y-velocity  z-velocity      energy     time/iter
   650  1.6895e-05  1.1660e-04  1.9839e-05  5.7841e-02  1.6789e-05  0:03:09 1350
   651  1.6859e-05  1.1667e-04  1.9582e-05  5.5798e-02  1.6753e-05  0:02:31 1349
   652  1.6853e-05  1.1676e-04  1.9326e-05  5.3742e-02  1.6746e-05  0:02:01 1348
   653  1.6875e-05  1.1686e-04  1.9072e-05  5.1905e-02  1.6768e-05  0:01:36 1347
   654  1.6923e-05  1.1696e-04  1.8820e-05  5.0295e-02  1.6816e-05  0:01:17 1346
   655  1.6994e-05  1.1707e-04  1.8572e-05  4.8714e-02  1.6887e-05  0:01:02 1345
   656  1.7082e-05  1.1718e-04  1.8329e-05  4.7013e-02  1.6976e-05  0:00:49 1344
   657  1.7182e-05  1.1730e-04  1.8093e-05  4.5346e-02  1.7077e-05  0:00:39 1343
   658  1.7288e-05  1.1741e-04  1.7864e-05  4.3816e-02  1.7183e-05  0:00:31 1342
   659  1.7392e-05  1.1753e-04  1.7643e-05  4.2456e-02  1.7288e-05  0:00:25 1341
   660  1.7488e-05  1.1764e-04  1.7431e-05  4.0911e-02  1.7386e-05  0:04:48 1340

  iter  continuity  x-velocity  y-velocity  z-velocity      energy     time/iter
   661  1.7571e-05  1.1775e-04  1.7229e-05  3.9338e-02  1.7469e-05  0:03:50 1339
   662  1.7633e-05  1.1785e-04  1.7037e-05  3.8005e-02  1.7532e-05  0:03:04 1338
   663  1.7671e-05  1.1794e-04  1.6856e-05  3.6778e-02  1.7571e-05  0:02:27 1337
   664  1.7679e-05  1.1801e-04  1.6686e-05  3.5608e-02  1.7581e-05  0:01:58 1336
   665  1.7654e-05  1.1804e-04  1.6523e-05  3.4567e-02  1.7557e-05  0:01:34 1335
   666  1.7595e-05  1.1802e-04  1.6372e-05  3.3597e-02  1.7499e-05  0:01:15 1334
   667  1.7496e-05  1.1794e-04  1.6220e-05  3.2677e-02  1.7400e-05  0:01:00 1333
   668  1.7375e-05  1.1793e-04  1.6058e-05  3.1735e-02  1.7281e-05  0:00:48 1332
   669  1.7230e-05  1.1801e-04  1.5911e-05  3.0868e-02  1.7137e-05  0:00:38 1331
   670  1.7056e-05  1.1813e-04  1.5785e-05  2.9871e-02  1.6964e-05  0:00:31 1330
   671  1.6852e-05  1.1829e-04  1.5676e-05  2.8861e-02  1.6761e-05  0:04:50 1329

  iter  continuity  x-velocity  y-velocity  z-velocity      energy     time/iter
   672  1.6623e-05  1.1848e-04  1.5580e-05  2.8692e-02  1.6533e-05  0:03:52 1328
   673  1.6372e-05  1.1870e-04  1.5495e-05  3.0366e-02  1.6283e-05  0:03:06 1327
   674  1.6103e-05  1.1895e-04  1.5420e-05  3.0648e-02  1.6015e-05  0:02:28 1326
   675  1.5821e-05  1.1924e-04  1.5354e-05  3.0426e-02  1.5735e-05  0:01:59 1325
   676  1.5532e-05  1.1955e-04  1.5294e-05  2.9932e-02  1.5446e-05  0:01:35 1324
   677  1.5240e-05  1.1989e-04  1.5241e-05  2.8179e-02  1.5155e-05  0:01:16 1323
   678  1.4949e-05  1.2024e-04  1.5194e-05  2.6119e-02  1.4865e-05  0:01:01 1322
   679  1.4666e-05  1.2062e-04  1.5151e-05  2.4823e-02  1.4583e-05  0:00:48 1321
   680  1.4395e-05  1.2102e-04  1.5113e-05  2.3474e-02  1.4313e-05  0:00:39 1320
   681  1.4139e-05  1.2144e-04  1.5078e-05  2.2151e-02  1.4059e-05  0:00:31 1319
   682  1.3902e-05  1.2188e-04  1.5045e-05  2.0872e-02  1.3824e-05  0:04:48 1318

  iter  continuity  x-velocity  y-velocity  z-velocity      energy     time/iter
   683  1.3685e-05  1.2232e-04  1.5013e-05  1.9797e-02  1.3609e-05  0:03:50 1317
   684  1.3490e-05  1.2277e-04  1.4982e-05  1.8881e-02  1.3415e-05  0:03:04 1316
   685  1.3316e-05  1.2321e-04  1.4950e-05  1.8078e-02  1.3242e-05  0:02:27 1315
   686  1.3162e-05  1.2365e-04  1.4917e-05  1.7370e-02  1.3090e-05  0:01:58 1314
   687  1.3027e-05  1.2407e-04  1.4881e-05  1.6738e-02  1.2957e-05  0:01:34 1313
   688  1.2909e-05  1.2448e-04  1.4842e-05  1.6163e-02  1.2841e-05  0:01:15 1312
   689  1.2805e-05  1.2487e-04  1.4800e-05  1.5618e-02  1.2739e-05  0:01:00 1311
   690  1.2712e-05  1.2523e-04  1.4752e-05  1.5096e-02  1.2647e-05  0:05:10 1310
   691  1.2626e-05  1.2555e-04  1.4698e-05  1.4623e-02  1.2562e-05  0:04:08 1309
   692  1.2545e-05  1.2583e-04  1.4638e-05  1.4199e-02  1.2482e-05  0:03:18 1308
   693  1.2465e-05  1.2607e-04  1.4572e-05  1.3824e-02  1.2404e-05  0:02:38 1307

  iter  continuity  x-velocity  y-velocity  z-velocity      energy     time/iter
   694  1.2384e-05  1.2626e-04  1.4498e-05  1.3492e-02  1.2324e-05  0:02:07 1306
   695  1.2300e-05  1.2640e-04  1.4417e-05  1.3185e-02  1.2241e-05  0:01:41 1305
   696  1.2211e-05  1.2648e-04  1.4329e-05  1.2914e-02  1.2153e-05  0:01:21 1304
   697  1.2116e-05  1.2651e-04  1.4233e-05  1.2696e-02  1.2059e-05  0:01:05 1303
   698  1.2014e-05  1.2647e-04  1.4129e-05  1.2526e-02  1.1958e-05  0:00:52 1302
   699  1.1906e-05  1.2638e-04  1.4018e-05  1.2395e-02  1.1850e-05  0:00:41 1301
   700  1.1793e-05  1.2622e-04  1.3900e-05  1.2306e-02  1.1737e-05  0:00:33 1300
   701  1.1674e-05  1.2601e-04  1.3774e-05  1.2259e-02  1.1619e-05  0:04:46 1299
   702  1.1553e-05  1.2574e-04  1.3643e-05  1.2238e-02  1.1498e-05  0:03:49 1298
   703  1.1431e-05  1.2542e-04  1.3505e-05  1.2201e-02  1.1375e-05  0:03:03 1297
   704  1.1309e-05  1.2506e-04  1.3363e-05  1.2171e-02  1.1254e-05  0:02:26 1296

  iter  continuity  x-velocity  y-velocity  z-velocity      energy     time/iter
   705  1.1191e-05  1.2466e-04  1.3216e-05  1.2157e-02  1.1135e-05  0:01:57 1295
   706  1.1078e-05  1.2422e-04  1.3066e-05  1.2165e-02  1.1022e-05  0:01:33 1294
   707  1.0971e-05  1.2375e-04  1.2913e-05  1.2187e-02  1.0915e-05  0:01:15 1293
   708  1.0878e-05  1.2327e-04  1.2760e-05  1.2238e-02  1.0822e-05  0:01:00 1292
   709  1.0796e-05  1.2278e-04  1.2607e-05  1.2304e-02  1.0740e-05  0:00:48 1291
   710  1.0722e-05  1.2228e-04  1.2452e-05  1.2384e-02  1.0666e-05  0:00:38 1290
   711  1.0657e-05  1.2177e-04  1.2297e-05  1.2479e-02  1.0601e-05  0:00:30 1289
   712  1.0602e-05  1.2126e-04  1.2143e-05  1.2578e-02  1.0546e-05  0:04:42 1288
   713  1.0557e-05  1.2077e-04  1.1991e-05  1.2668e-02  1.0501e-05  0:03:45 1287
   714  1.0521e-05  1.2029e-04  1.1843e-05  1.2767e-02  1.0464e-05  0:03:00 1286
   715  1.0491e-05  1.1983e-04  1.1698e-05  1.2885e-02  1.0435e-05  0:02:24 1285

  iter  continuity  x-velocity  y-velocity  z-velocity      energy     time/iter
   716  1.0467e-05  1.1939e-04  1.1556e-05  1.3023e-02  1.0411e-05  0:01:55 1284
   717  1.0445e-05  1.1898e-04  1.1419e-05  1.3177e-02  1.0389e-05  0:01:32 1283
   718  1.0422e-05  1.1861e-04  1.1285e-05  1.3344e-02  1.0367e-05  0:01:14 1282
   719  1.0398e-05  1.1826e-04  1.1157e-05  1.3523e-02  1.0343e-05  0:00:59 1281
   720  1.0369e-05  1.1795e-04  1.1032e-05  1.3714e-02  1.0314e-05  0:00:47 1280
   721  1.0333e-05  1.1767e-04  1.0913e-05  1.3840e-02  1.0279e-05  0:04:53 1279
   722  1.0288e-05  1.1743e-04  1.0798e-05  1.5422e-02  1.0234e-05  0:03:55 1278
   723  1.0233e-05  1.1722e-04  1.0688e-05  2.0430e-02  1.0179e-05  0:03:07 1277
   724  1.0165e-05  1.1704e-04  1.0583e-05  2.6560e-02  1.0112e-05  0:02:30 1276
   725  1.0084e-05  1.1690e-04  1.0483e-05  3.2978e-02  1.0032e-05  0:02:00 1275
   726  9.9903e-06  1.1679e-04  1.0387e-05  3.9130e-02  9.9383e-06  0:01:36 1274

  iter  continuity  x-velocity  y-velocity  z-velocity      energy     time/iter
   727  9.8830e-06  1.1671e-04  1.0295e-05  4.4228e-02  9.8315e-06  0:01:17 1273
   728  9.7628e-06  1.1666e-04  1.0207e-05  4.9703e-02  9.7117e-06  0:01:01 1272
   729  9.6858e-06  1.1591e-04  1.0078e-05  5.6110e-02  9.6363e-06  0:00:49 1271
   730  9.7689e-06  1.1599e-04  9.9705e-06  6.1468e-02  9.7216e-06  0:04:53 1270
   731  9.7372e-06  1.1617e-04  9.8866e-06  6.3237e-02  9.6913e-06  0:03:54 1269
   732  9.6079e-06  1.1624e-04  9.8078e-06  6.3327e-02  9.5628e-06  0:03:07 1268
   733  9.4298e-06  1.1621e-04  9.7282e-06  6.2958e-02  9.3852e-06  0:02:30 1267
   734  9.2297e-06  1.1611e-04  9.6489e-06  6.2483e-02  9.1855e-06  0:02:00 1266
   735  9.0197e-06  1.1595e-04  9.5710e-06  6.2121e-02  8.9760e-06  0:01:36 1265
   736  8.8062e-06  1.1575e-04  9.4945e-06  6.1925e-02  8.7629e-06  0:01:16 1264
   737  8.5933e-06  1.1553e-04  9.4189e-06  6.1878e-02  8.5505e-06  0:05:14 1263

  iter  continuity  x-velocity  y-velocity  z-velocity      energy     time/iter
   738  8.3844e-06  1.1529e-04  9.3441e-06  6.1808e-02  8.3422e-06  0:04:11 1262
   739  8.1824e-06  1.1504e-04  9.2701e-06  6.1665e-02  8.1408e-06  0:03:20 1261
   740  7.9898e-06  1.1479e-04  9.1968e-06  6.1734e-02  7.9488e-06  0:02:40 1260
   741  7.8086e-06  1.1454e-04  9.1241e-06  6.1759e-02  7.7683e-06  0:02:08 1259
   742  7.6403e-06  1.1429e-04  9.0523e-06  6.1558e-02  7.6008e-06  0:01:42 1258
   743  7.4861e-06  1.1403e-04  8.9813e-06  6.1409e-02  7.4473e-06  0:01:22 1257
   744  7.3463e-06  1.1378e-04  8.9111e-06  6.1108e-02  7.3083e-06  0:01:05 1256
   745  7.2209e-06  1.1353e-04  8.8416e-06  6.0635e-02  7.1836e-06  0:00:52 1255
   746  7.1097e-06  1.1327e-04  8.7726e-06  6.0060e-02  7.0731e-06  0:00:42 1254
   747  7.0117e-06  1.1301e-04  8.7043e-06  5.9434e-02  6.9759e-06  0:04:44 1253
   748  6.9262e-06  1.1275e-04  8.6364e-06  5.8845e-02  6.8910e-06  0:03:47 1252

  iter  continuity  x-velocity  y-velocity  z-velocity      energy     time/iter
   749  6.8517e-06  1.1249e-04  8.5690e-06  5.8315e-02  6.8171e-06  0:03:01 1251
   750  6.7873e-06  1.1222e-04  8.5021e-06  5.7768e-02  6.7533e-06  0:02:25 1250
   751  6.7321e-06  1.1195e-04  8.4357e-06  5.7175e-02  6.6985e-06  0:01:56 1249
   752  6.6847e-06  1.1169e-04  8.3702e-06  5.6610e-02  6.6516e-06  0:01:33 1248
   753  6.6442e-06  1.1142e-04  8.3058e-06  5.6093e-02  6.6115e-06  0:01:14 1247
   754  6.6098e-06  1.1116e-04  8.2428e-06  5.5666e-02  6.5772e-06  0:00:59 1246
   755  6.5806e-06  1.1091e-04  8.1816e-06  5.5301e-02  6.5483e-06  0:00:47 1245
   756  6.5564e-06  1.1067e-04  8.1224e-06  5.4991e-02  6.5242e-06  0:00:38 1244
   757  6.5369e-06  1.1044e-04  8.0656e-06  5.4701e-02  6.5047e-06  0:04:39 1243
   758  6.5219e-06  1.1022e-04  8.0115e-06  5.4398e-02  6.4898e-06  0:03:43 1242
   759  6.5116e-06  1.1002e-04  7.9604e-06  5.4080e-02  6.4794e-06  0:02:58 1241

  iter  continuity  x-velocity  y-velocity  z-velocity      energy     time/iter
   760  6.5061e-06  1.0983e-04  7.9125e-06  5.3799e-02  6.4738e-06  0:02:22 1240
   761  6.5056e-06  1.0965e-04  7.8681e-06  5.3611e-02  6.4731e-06  0:01:54 1239
   762  6.5100e-06  1.0949e-04  7.8273e-06  5.3551e-02  6.4774e-06  0:01:31 1238
   763  6.5190e-06  1.0934e-04  7.7867e-06  5.3606e-02  6.4862e-06  0:01:13 1237
   764  6.5342e-06  1.0921e-04  7.7518e-06  5.3677e-02  6.5011e-06  0:00:58 1236
   765  6.5546e-06  1.0909e-04  7.7229e-06  5.3897e-02  6.5212e-06  0:00:46 1235
   766  6.5796e-06  1.0897e-04  7.6983e-06  5.4223e-02  6.5460e-06  0:00:37 1234
   767  6.6089e-06  1.0886e-04  7.6769e-06  5.4623e-02  6.5750e-06  0:04:36 1233
   768  6.6420e-06  1.0875e-04  7.6586e-06  5.5090e-02  6.6079e-06  0:03:41 1232
   769  6.6783e-06  1.0864e-04  7.6433e-06  5.5614e-02  6.6440e-06  0:02:57 1231
   770  6.7171e-06  1.0853e-04  7.6309e-06  5.6190e-02  6.6825e-06  0:02:21 1230

  iter  continuity  x-velocity  y-velocity  z-velocity      energy     time/iter
   771  6.7569e-06  1.0841e-04  7.6210e-06  5.6813e-02  6.7220e-06  0:01:53 1229
   772  6.7973e-06  1.0828e-04  7.6134e-06  5.7484e-02  6.7623e-06  0:01:30 1228
   773  6.8374e-06  1.0814e-04  7.6080e-06  5.8191e-02  6.8021e-06  0:01:12 1227
   774  6.8761e-06  1.0798e-04  7.6043e-06  5.9012e-02  6.8405e-06  0:00:58 1226
   775  6.9122e-06  1.0779e-04  7.6022e-06  5.9840e-02  6.8764e-06  0:00:46 1225
   776  6.9453e-06  1.0759e-04  7.6012e-06  6.0680e-02  6.9092e-06  0:00:37 1224
   777  6.9745e-06  1.0737e-04  7.6012e-06  6.1543e-02  6.9381e-06  0:04:34 1223
   778  6.9992e-06  1.0712e-04  7.6020e-06  6.2433e-02  6.9626e-06  0:03:39 1222
   779  7.0188e-06  1.0685e-04  7.6034e-06  6.3353e-02  6.9819e-06  0:02:55 1221
   780  7.0330e-06  1.0655e-04  7.6054e-06  6.4305e-02  6.9958e-06  0:02:20 1220
   781  7.0427e-06  1.0631e-04  7.6023e-06  6.5288e-02  7.0055e-06  0:01:52 1219

  iter  continuity  x-velocity  y-velocity  z-velocity      energy     time/iter
   782  7.0475e-06  1.0608e-04  7.5988e-06  6.6207e-02  7.0103e-06  0:01:29 1218
   783  7.0434e-06  1.0584e-04  7.5969e-06  6.7145e-02  7.0062e-06  0:01:11 1217
   784  7.0315e-06  1.0559e-04  7.5952e-06  6.8104e-02  6.9942e-06  0:00:57 1216
   785  7.0134e-06  1.0534e-04  7.5930e-06  6.9092e-02  6.9761e-06  0:00:46 1215
   786  6.9902e-06  1.0509e-04  7.5904e-06  7.0114e-02  6.9528e-06  0:00:37 1214
   787  6.9627e-06  1.0484e-04  7.5878e-06  7.1171e-02  6.9253e-06  0:04:32 1213
   788  6.9314e-06  1.0461e-04  7.5856e-06  7.2265e-02  6.8940e-06  0:03:37 1212
   789  6.8964e-06  1.0438e-04  7.5838e-06  7.3393e-02  6.8591e-06  0:02:54 1211
   790  6.8308e-06  1.0409e-04  7.5836e-06  7.4541e-02  6.7934e-06  0:02:19 1210
   791  6.7747e-06  1.0384e-04  7.5795e-06  7.5668e-02  6.7374e-06  0:01:51 1209
   792  6.7235e-06  1.0361e-04  7.5737e-06  7.6766e-02  6.6863e-06  0:01:29 1208

  iter  continuity  x-velocity  y-velocity  z-velocity      energy     time/iter
   793  6.6752e-06  1.0340e-04  7.5680e-06  7.7890e-02  6.6382e-06  0:01:11 1207
   794  6.6291e-06  1.0321e-04  7.5632e-06  7.9039e-02  6.5923e-06  0:00:57 1206
   795  6.5850e-06  1.0304e-04  7.5595e-06  8.0225e-02  6.5484e-06  0:00:45 1205
   796  6.5430e-06  1.0289e-04  7.5570e-06  8.1457e-02  6.5066e-06  0:00:36 1204
   797  6.5033e-06  1.0275e-04  7.5559e-06  8.2740e-02  6.4671e-06  0:00:29 1203
   798  6.4663e-06  1.0263e-04  7.5562e-06  8.4112e-02  6.4304e-06  0:04:24 1202
   799  6.4322e-06  1.0253e-04  7.5580e-06  8.5530e-02  6.3965e-06  0:03:31 1201
   800  6.4012e-06  1.0244e-04  7.5615e-06  8.6960e-02  6.3657e-06  0:02:48 1200
   801  6.3734e-06  1.0236e-04  7.5666e-06  8.8445e-02  6.3381e-06  0:02:15 1199
   802  6.3487e-06  1.0230e-04  7.5734e-06  8.9987e-02  6.3137e-06  0:01:48 1198
   803  6.3238e-06  1.0223e-04  7.5815e-06  9.1587e-02  6.2889e-06  0:01:26 1197

  iter  continuity  x-velocity  y-velocity  z-velocity      energy     time/iter
   804  5.5733e-06  9.9899e-05  7.4890e-06  9.3237e-02  5.5348e-06  0:01:09 1196
   805  5.4713e-06  9.9013e-05  7.3832e-06  9.5125e-02  5.4334e-06  0:00:55 1195
   806  5.5196e-06  9.8625e-05  7.3337e-06  9.6664e-02  5.4830e-06  0:00:44 1194
   807  5.5800e-06  9.8391e-05  7.3137e-06  9.7977e-02  5.5446e-06  0:00:35 1193
   808  5.6190e-06  9.8203e-05  7.3138e-06  9.9218e-02  5.5843e-06  0:00:28 1192
   809  5.6312e-06  9.8036e-05  7.3256e-06  1.0048e-01  5.5968e-06  0:04:21 1191
[...]
  1791  3.8568e-08  3.0561e-07  4.3503e-08  1.3445e-03  3.8349e-08  0:00:11  209
  1792  3.8130e-08  3.0302e-07  4.3127e-08  1.3618e-03  3.7913e-08  0:00:50  208
  1793  3.7700e-08  3.0055e-07  4.2761e-08  1.3777e-03  3.7484e-08  0:00:40  207

  iter  continuity  x-velocity  y-velocity  z-velocity      energy     time/iter
  1794  3.7281e-08  2.9821e-07  4.2400e-08  1.3921e-03  3.7066e-08  0:00:32  206
  1795  3.6876e-08  2.9598e-07  4.2041e-08  1.4050e-03  3.6662e-08  0:00:25  205
  1796  3.6487e-08  2.9388e-07  4.1685e-08  1.4163e-03  3.6274e-08  0:00:20  204
  1797  3.6114e-08  2.9189e-07  4.1331e-08  1.4261e-03  3.5903e-08  0:00:16  203
  1798  3.5757e-08  2.9002e-07  4.0981e-08  1.4343e-03  3.5547e-08  0:00:13  202
  1799  3.5415e-08  2.8826e-07  4.0633e-08  1.4408e-03  3.5206e-08  0:00:10  201
  1800  3.5087e-08  2.8662e-07  4.0291e-08  1.4457e-03  3.4880e-08  0:00:48  200
  1801  3.4773e-08  2.8507e-07  3.9953e-08  1.4490e-03  3.4567e-08  0:00:38  199
  1802  3.4473e-08  2.8363e-07  3.9621e-08  1.4506e-03  3.4268e-08  0:00:30  198
  1803  3.4185e-08  2.8228e-07  3.9294e-08  1.4506e-03  3.3981e-08  0:00:24  197
  1804  3.3909e-08  2.8103e-07  3.8974e-08  1.4489e-03  3.3707e-08  0:00:19  196

  iter  continuity  x-velocity  y-velocity  z-velocity      energy     time/iter
  1805  3.3646e-08  2.7986e-07  3.8659e-08  1.4456e-03  3.3445e-08  0:00:15  195
  1806  3.3395e-08  2.7877e-07  3.8351e-08  1.4407e-03  3.3195e-08  0:00:12  194
  1807  3.3156e-08  2.7775e-07  3.8049e-08  1.4342e-03  3.2958e-08  0:00:10  193
  1808  3.2929e-08  2.7680e-07  3.7753e-08  1.4262e-03  3.2732e-08  0:00:46  192
  1809  3.2714e-08  2.7591e-07  3.7464e-08  1.4166e-03  3.2519e-08  0:00:37  191
  1810  3.2510e-08  2.7507e-07  3.7180e-08  1.4055e-03  3.2316e-08  0:00:29  190
  1811  3.2318e-08  2.7429e-07  3.6903e-08  1.3929e-03  3.2125e-08  0:00:23  189
  1812  3.2136e-08  2.7354e-07  3.6633e-08  1.3788e-03  3.1945e-08  0:00:19  188
  1813  3.1964e-08  2.7283e-07  3.6369e-08  1.3634e-03  3.1775e-08  0:00:15  187
  1814  3.1802e-08  2.7215e-07  3.6111e-08  1.3466e-03  3.1614e-08  0:00:12  186
  1815  3.1649e-08  2.7149e-07  3.5859e-08  1.3284e-03  3.1463e-08  0:00:09  185

  iter  continuity  x-velocity  y-velocity  z-velocity      energy     time/iter
  1816  3.1504e-08  2.7084e-07  3.5615e-08  1.3090e-03  3.1319e-08  0:00:07  184
  1817  3.1367e-08  2.7021e-07  3.5376e-08  1.2884e-03  3.1184e-08  0:00:43  183
  1818  3.1237e-08  2.6958e-07  3.5144e-08  1.2666e-03  3.1055e-08  0:00:34  182
  1819  3.1114e-08  2.6895e-07  3.4918e-08  1.2436e-03  3.0933e-08  0:00:27  181
  1820  3.0996e-08  2.6831e-07  3.4698e-08  1.2197e-03  3.0816e-08  0:00:21  180
  1821  3.0883e-08  2.6766e-07  3.4484e-08  1.1947e-03  3.0705e-08  0:00:17  179
  1822  3.0774e-08  2.6699e-07  3.4276e-08  1.1687e-03  3.0597e-08  0:00:14  178
  1823  3.0669e-08  2.6630e-07  3.4074e-08  1.1419e-03  3.0493e-08  0:00:11  177
  1824  3.0567e-08  2.6559e-07  3.3877e-08  1.1142e-03  3.0393e-08  0:00:09  176
  1825  3.0468e-08  2.6485e-07  3.3686e-08  1.0858e-03  3.0294e-08  0:00:07  175
  1826  3.0370e-08  2.6407e-07  3.3500e-08  1.0568e-03  3.0198e-08  0:00:40  174

  iter  continuity  x-velocity  y-velocity  z-velocity      energy     time/iter
  1827  3.0274e-08  2.6327e-07  3.3318e-08  1.0271e-03  3.0103e-08  0:00:32  173
  1828  3.0178e-08  2.6242e-07  3.3142e-08  9.9691e-04  3.0009e-08  0:00:25  172
  1829  3.0084e-08  2.6153e-07  3.2970e-08  9.6629e-04  2.9915e-08  0:00:20  171
  1830  2.9989e-08  2.6061e-07  3.2803e-08  9.3532e-04  2.9821e-08  0:00:16  170
  1831  2.9893e-08  2.5964e-07  3.2640e-08  9.0409e-04  2.9727e-08  0:00:13  169
  1832  2.9797e-08  2.5862e-07  3.2481e-08  8.7271e-04  2.9632e-08  0:00:10  168
  1833  2.9700e-08  2.5756e-07  3.2326e-08  8.4126e-04  2.9535e-08  0:00:08  167
  1834  2.9602e-08  2.5645e-07  3.2174e-08  8.0988e-04  2.9438e-08  0:00:40  166
  1835  2.9502e-08  2.5530e-07  3.2026e-08  7.7867e-04  2.9339e-08  0:00:32  165
  1836  2.9400e-08  2.5410e-07  3.1881e-08  7.4777e-04  2.9238e-08  0:00:25  164
  1837  2.9297e-08  2.5285e-07  3.1740e-08  7.1731e-04  2.9135e-08  0:00:20  163

  iter  continuity  x-velocity  y-velocity  z-velocity      energy     time/iter
  1838  2.9191e-08  2.5156e-07  3.1601e-08  6.8746e-04  2.9030e-08  0:00:16  162
  1839  2.9083e-08  2.5023e-07  3.1465e-08  6.5837e-04  2.8923e-08  0:00:13  161
  1840  2.8974e-08  2.4885e-07  3.1332e-08  6.3021e-04  2.8814e-08  0:00:10  160
  1841  2.8862e-08  2.4744e-07  3.1202e-08  6.0320e-04  2.8703e-08  0:00:08  159
  1842  2.8747e-08  2.4598e-07  3.1074e-08  5.7752e-04  2.8589e-08  0:00:38  158
  1843  2.8631e-08  2.4448e-07  3.0949e-08  5.5341e-04  2.8474e-08  0:00:30  157
  1844  2.8513e-08  2.4296e-07  3.0826e-08  5.3109e-04  2.8356e-08  0:00:24  156
  1845  2.8393e-08  2.4140e-07  3.0705e-08  5.1082e-04  2.8237e-08  0:00:19  155
  1846  2.8259e-08  2.3981e-07  3.0597e-08  4.9294e-04  2.8103e-08  0:00:15  154
  1847  2.8131e-08  2.3821e-07  3.0487e-08  4.7741e-04  2.7975e-08  0:00:12  153
  1848  2.8007e-08  2.3659e-07  3.0375e-08  4.6454e-04  2.7852e-08  0:00:10  152

  iter  continuity  x-velocity  y-velocity  z-velocity      energy     time/iter
  1849  2.7887e-08  2.3494e-07  3.0262e-08  4.5454e-04  2.7732e-08  0:00:08  151
  1850  2.7767e-08  2.3327e-07  3.0149e-08  4.4757e-04  2.7613e-08  0:00:36  150
  1851  2.7647e-08  2.3158e-07  3.0037e-08  4.4367e-04  2.7493e-08  0:00:29  149
  1852  2.7525e-08  2.2989e-07  2.9927e-08  4.4280e-04  2.7371e-08  0:00:23  148
  1853  2.7401e-08  2.2819e-07  2.9818e-08  4.4485e-04  2.7248e-08  0:00:18  147
  1854  2.7276e-08  2.2648e-07  2.9713e-08  4.4964e-04  2.7123e-08  0:00:14  146
  1855  2.7150e-08  2.2478e-07  2.9609e-08  4.5694e-04  2.6998e-08  0:00:11  145
  1856  2.7024e-08  2.2309e-07  2.9507e-08  4.6649e-04  2.6872e-08  0:00:09  144
  1857  2.6899e-08  2.2141e-07  2.9408e-08  4.7799e-04  2.6747e-08  0:00:36  143
  1858  2.6775e-08  2.1974e-07  2.9310e-08  4.9117e-04  2.6624e-08  0:00:28  142
  1859  2.6654e-08  2.1810e-07  2.9214e-08  5.0572e-04  2.6503e-08  0:00:23  141

  iter  continuity  x-velocity  y-velocity  z-velocity      energy     time/iter
  1860  2.6536e-08  2.1647e-07  2.9120e-08  5.2138e-04  2.6385e-08  0:00:18  140
  1861  2.6421e-08  2.1487e-07  2.9028e-08  5.3790e-04  2.6271e-08  0:00:14  139
  1862  2.6310e-08  2.1331e-07  2.8937e-08  5.5503e-04  2.6160e-08  0:00:11  138
  1863  2.6203e-08  2.1177e-07  2.8849e-08  5.7257e-04  2.6053e-08  0:00:09  137
  1864  2.6101e-08  2.1028e-07  2.8762e-08  5.9034e-04  2.5951e-08  0:00:07  136
  1865  2.6003e-08  2.0882e-07  2.8678e-08  6.0817e-04  2.5853e-08  0:00:33  135
  1866  2.5909e-08  2.0741e-07  2.8596e-08  6.2593e-04  2.5760e-08  0:00:26  134
  1867  2.5821e-08  2.0605e-07  2.8516e-08  6.4348e-04  2.5672e-08  0:00:21  133
  1868  2.5738e-08  2.0474e-07  2.8439e-08  6.6071e-04  2.5589e-08  0:00:16  132
  1869  2.5660e-08  2.0347e-07  2.8364e-08  6.7753e-04  2.5511e-08  0:00:13  131
  1870  2.5587e-08  2.0226e-07  2.8291e-08  6.9385e-04  2.5439e-08  0:00:10  130

  iter  continuity  x-velocity  y-velocity  z-velocity      energy     time/iter
  1871  2.5520e-08  2.0111e-07  2.8220e-08  7.0960e-04  2.5372e-08  0:00:08  129
  1872  2.5459e-08  2.0001e-07  2.8152e-08  7.2470e-04  2.5311e-08  0:00:32  128
  1873  2.5403e-08  1.9897e-07  2.8086e-08  7.3911e-04  2.5256e-08  0:00:25  127
  1874  2.5354e-08  1.9799e-07  2.8022e-08  7.5277e-04  2.5207e-08  0:00:20  126
  1875  2.5310e-08  1.9707e-07  2.7960e-08  7.6565e-04  2.5164e-08  0:00:16  125
  1876  2.5273e-08  1.9621e-07  2.7901e-08  7.7770e-04  2.5127e-08  0:00:13  124
  1877  2.5241e-08  1.9540e-07  2.7844e-08  7.8889e-04  2.5095e-08  0:00:10  123
  1878  2.5216e-08  1.9466e-07  2.7789e-08  7.9920e-04  2.5070e-08  0:00:32  122
  1879  2.5196e-08  1.9397e-07  2.7736e-08  8.0861e-04  2.5051e-08  0:00:26  121
  1880  2.5182e-08  1.9333e-07  2.7685e-08  8.1709e-04  2.5037e-08  0:00:20  120
  1881  2.5173e-08  1.9276e-07  2.7636e-08  8.2463e-04  2.5029e-08  0:00:16  119

  iter  continuity  x-velocity  y-velocity  z-velocity      energy     time/iter
  1882  2.5170e-08  1.9223e-07  2.7589e-08  8.3122e-04  2.5026e-08  0:00:13  118
  1883  2.5171e-08  1.9175e-07  2.7543e-08  8.3686e-04  2.5028e-08  0:00:10  117
  1884  2.5178e-08  1.9132e-07  2.7500e-08  8.4152e-04  2.5035e-08  0:00:08  116
  1885  2.5189e-08  1.9094e-07  2.7458e-08  8.4522e-04  2.5047e-08  0:00:29  115
  1886  2.5204e-08  1.9060e-07  2.7418e-08  8.4794e-04  2.5062e-08  0:00:23  114
  1887  2.5224e-08  1.9030e-07  2.7379e-08  8.4969e-04  2.5082e-08  0:00:18  113
  1888  2.5247e-08  1.9003e-07  2.7342e-08  8.5049e-04  2.5106e-08  0:00:15  112
  1889  2.5273e-08  1.8980e-07  2.7306e-08  8.5032e-04  2.5132e-08  0:00:12  111
  1890  2.5302e-08  1.8959e-07  2.7271e-08  8.4921e-04  2.5162e-08  0:00:09  110
  1891  2.5333e-08  1.8941e-07  2.7237e-08  8.4715e-04  2.5194e-08  0:00:07  109
  1892  2.5366e-08  1.8925e-07  2.7204e-08  8.4417e-04  2.5227e-08  0:00:27  108

  iter  continuity  x-velocity  y-velocity  z-velocity      energy     time/iter
  1893  2.5401e-08  1.8910e-07  2.7172e-08  8.4028e-04  2.5263e-08  0:00:22  107
  1894  2.5437e-08  1.8897e-07  2.7141e-08  8.3549e-04  2.5299e-08  0:00:17  106
  1895  2.5473e-08  1.8885e-07  2.7109e-08  8.2981e-04  2.5336e-08  0:00:14  105
  1896  2.5510e-08  1.8874e-07  2.7078e-08  8.2327e-04  2.5373e-08  0:00:11  104
  1897  2.5546e-08  1.8863e-07  2.7048e-08  8.1590e-04  2.5410e-08  0:00:09  103
  1898  2.5582e-08  1.8851e-07  2.7017e-08  8.0772e-04  2.5447e-08  0:00:07  102
  1899  2.5617e-08  1.8839e-07  2.6985e-08  7.9874e-04  2.5482e-08  0:00:26  101
  1900  2.5650e-08  1.8826e-07  2.6954e-08  7.8900e-04  2.5516e-08  0:00:20  100
  1901  2.5682e-08  1.8811e-07  2.6921e-08  7.7851e-04  2.5548e-08  0:00:16   99
  1902  2.5711e-08  1.8795e-07  2.6888e-08  7.6731e-04  2.5578e-08  0:00:13   98
  1903  2.5737e-08  1.8777e-07  2.6854e-08  7.5542e-04  2.5605e-08  0:00:10   97

  iter  continuity  x-velocity  y-velocity  z-velocity      energy     time/iter
  1904  2.5761e-08  1.8757e-07  2.6819e-08  7.4288e-04  2.5628e-08  0:00:08   96
  1905  2.5780e-08  1.8734e-07  2.6782e-08  7.2971e-04  2.5649e-08  0:00:06   95
  1906  2.5796e-08  1.8708e-07  2.6744e-08  7.1595e-04  2.5666e-08  0:00:05   94
  1907  2.5808e-08  1.8679e-07  2.6705e-08  7.0163e-04  2.5678e-08  0:00:23   93
  1908  2.5816e-08  1.8646e-07  2.6663e-08  6.8679e-04  2.5686e-08  0:00:18   92
  1909  2.5819e-08  1.8610e-07  2.6619e-08  6.7146e-04  2.5690e-08  0:00:14   91
  1910  2.5817e-08  1.8570e-07  2.6574e-08  6.5568e-04  2.5688e-08  0:00:11   90
  1911  2.5809e-08  1.8525e-07  2.6525e-08  6.3950e-04  2.5681e-08  0:00:09   89
  1912  2.5796e-08  1.8477e-07  2.6475e-08  6.2295e-04  2.5669e-08  0:00:07   88
  1913  2.5778e-08  1.8424e-07  2.6421e-08  6.0607e-04  2.5651e-08  0:00:06   87
  1914  2.5753e-08  1.8366e-07  2.6365e-08  5.8892e-04  2.5627e-08  0:00:22   86

  iter  continuity  x-velocity  y-velocity  z-velocity      energy     time/iter
  1915  2.5722e-08  1.8304e-07  2.6306e-08  5.7154e-04  2.5597e-08  0:00:17   85
  1916  2.5685e-08  1.8236e-07  2.6244e-08  5.5397e-04  2.5560e-08  0:00:13   84
  1917  2.5642e-08  1.8164e-07  2.6179e-08  5.3628e-04  2.5518e-08  0:00:11   83
  1918  2.5592e-08  1.8087e-07  2.6111e-08  5.1850e-04  2.5468e-08  0:00:08   82
  1919  2.5536e-08  1.8004e-07  2.6039e-08  5.0072e-04  2.5412e-08  0:00:07   81
  1920  2.5473e-08  1.7917e-07  2.5964e-08  4.8297e-04  2.5350e-08  0:00:05   80
  1921  2.5403e-08  1.7824e-07  2.5885e-08  4.6534e-04  2.5281e-08  0:00:04   79
  1922  2.5326e-08  1.7726e-07  2.5803e-08  4.4788e-04  2.5204e-08  0:00:19   78
  1923  2.5242e-08  1.7623e-07  2.5717e-08  4.3068e-04  2.5121e-08  0:00:15   77
  1924  2.5152e-08  1.7515e-07  2.5627e-08  4.1381e-04  2.5031e-08  0:00:12   76
  1925  2.5054e-08  1.7401e-07  2.5534e-08  3.9736e-04  2.4934e-08  0:00:09   75

  iter  continuity  x-velocity  y-velocity  z-velocity      energy     time/iter
  1926  2.4950e-08  1.7283e-07  2.5436e-08  3.8142e-04  2.4831e-08  0:00:07   74
  1927  2.4839e-08  1.7160e-07  2.5335e-08  3.6609e-04  2.4720e-08  0:00:06   73
  1928  2.4721e-08  1.7031e-07  2.5230e-08  3.5148e-04  2.4603e-08  0:00:05   72
  1929  2.4596e-08  1.6898e-07  2.5121e-08  3.3768e-04  2.4479e-08  0:00:18   71
  1930  2.4465e-08  1.6761e-07  2.5008e-08  3.2483e-04  2.4348e-08  0:00:14   70
  1931  2.4327e-08  1.6619e-07  2.4891e-08  3.1304e-04  2.4211e-08  0:00:11   69
  1932  2.4183e-08  1.6472e-07  2.4771e-08  3.0243e-04  2.4067e-08  0:00:09   68
  1933  2.4032e-08  1.6322e-07  2.4646e-08  2.9310e-04  2.3917e-08  0:00:07   67
  1934  2.3875e-08  1.6167e-07  2.4518e-08  2.8516e-04  2.3761e-08  0:00:05   66
  1935  2.3712e-08  1.6009e-07  2.4386e-08  2.7870e-04  2.3599e-08  0:00:04   65
  1936  2.3544e-08  1.5847e-07  2.4250e-08  2.7379e-04  2.3431e-08  0:00:03   64

  iter  continuity  x-velocity  y-velocity  z-velocity      energy     time/iter
  1937  2.3370e-08  1.5681e-07  2.4110e-08  2.7044e-04  2.3257e-08  0:00:15   63
  1938  2.3190e-08  1.5513e-07  2.3967e-08  2.6866e-04  2.3078e-08  0:00:12   62
  1939  2.3005e-08  1.5341e-07  2.3820e-08  2.6843e-04  2.2893e-08  0:00:09   61
  1940  2.2815e-08  1.5167e-07  2.3670e-08  2.6967e-04  2.2704e-08  0:00:07   60
  1941  2.2620e-08  1.4990e-07  2.3516e-08  2.7230e-04  2.2510e-08  0:00:06   59
  1942  2.2421e-08  1.4811e-07  2.3359e-08  2.7618e-04  2.2311e-08  0:00:05   58
  1943  2.2217e-08  1.4630e-07  2.3199e-08  2.8118e-04  2.2108e-08  0:00:04   57
  1944  2.2009e-08  1.4448e-07  2.3036e-08  2.8717e-04  2.1901e-08  0:00:14   56
  1945  2.1798e-08  1.4264e-07  2.2870e-08  2.9399e-04  2.1690e-08  0:00:11   55
  1946  2.1583e-08  1.4079e-07  2.2700e-08  3.0150e-04  2.1475e-08  0:00:09   54
  1947  2.1364e-08  1.3893e-07  2.2529e-08  3.0956e-04  2.1258e-08  0:00:07   53

  iter  continuity  x-velocity  y-velocity  z-velocity      energy     time/iter
  1948  2.1143e-08  1.3707e-07  2.2354e-08  3.1805e-04  2.1037e-08  0:00:05   52
  1949  2.0920e-08  1.3521e-07  2.2177e-08  3.2686e-04  2.0814e-08  0:00:04   51
  1950  2.0694e-08  1.3335e-07  2.1998e-08  3.3587e-04  2.0589e-08  0:00:03   50
  1951  2.0466e-08  1.3150e-07  2.1816e-08  3.4498e-04  2.0361e-08  0:00:12   49
  1952  2.0236e-08  1.2965e-07  2.1632e-08  3.5412e-04  2.0132e-08  0:00:10   48
  1953  2.0005e-08  1.2782e-07  2.1447e-08  3.6321e-04  1.9902e-08  0:00:08   47
  1954  1.9773e-08  1.2600e-07  2.1259e-08  3.7217e-04  1.9671e-08  0:00:06   46
  1955  1.9540e-08  1.2420e-07  2.1071e-08  3.8096e-04  1.9439e-08  0:00:05   45
  1956  1.9307e-08  1.2242e-07  2.0880e-08  3.8951e-04  1.9206e-08  0:00:04   44
  1957  1.9074e-08  1.2066e-07  2.0689e-08  3.9778e-04  1.8974e-08  0:00:03   43
  1958  1.8842e-08  1.1894e-07  2.0496e-08  4.0572e-04  1.8742e-08  0:00:02   42

  iter  continuity  x-velocity  y-velocity  z-velocity      energy     time/iter
  1959  1.8610e-08  1.1724e-07  2.0302e-08  4.1331e-04  1.8511e-08  0:00:10   41
  1960  1.8379e-08  1.1558e-07  2.0108e-08  4.2051e-04  1.8280e-08  0:00:08   40
  1961  1.8149e-08  1.1396e-07  1.9913e-08  4.2729e-04  1.8051e-08  0:00:06   39
  1962  1.7921e-08  1.1237e-07  1.9718e-08  4.3363e-04  1.7824e-08  0:00:05   38
  1963  1.7695e-08  1.1083e-07  1.9522e-08  4.3951e-04  1.7598e-08  0:00:04   37
  1964  1.7471e-08  1.0933e-07  1.9326e-08  4.4492e-04  1.7375e-08  0:00:03   36
  1965  1.7249e-08  1.0788e-07  1.9131e-08  4.4982e-04  1.7154e-08  0:00:09   35
  1966  1.7031e-08  1.0648e-07  1.8936e-08  4.5423e-04  1.6937e-08  0:00:07   34
  1967  1.6815e-08  1.0513e-07  1.8741e-08  4.5811e-04  1.6722e-08  0:00:06   33
  1968  1.6603e-08  1.0384e-07  1.8547e-08  4.6148e-04  1.6510e-08  0:00:04   32
  1969  1.6395e-08  1.0260e-07  1.8353e-08  4.6431e-04  1.6303e-08  0:00:03   31

  iter  continuity  x-velocity  y-velocity  z-velocity      energy     time/iter
  1970  1.6190e-08  1.0141e-07  1.8161e-08  4.6660e-04  1.6099e-08  0:00:03   30
  1971  1.5990e-08  1.0028e-07  1.7969e-08  4.6836e-04  1.5899e-08  0:00:02   29
  1972  1.5793e-08  9.9213e-08  1.7779e-08  4.6956e-04  1.5704e-08  0:00:02   28
  1973  1.5602e-08  9.8201e-08  1.7590e-08  4.7023e-04  1.5513e-08  0:00:07   27
  1974  1.5415e-08  9.7248e-08  1.7403e-08  4.7035e-04  1.5326e-08  0:00:05   26
  1975  1.5232e-08  9.6353e-08  1.7218e-08  4.6993e-04  1.5145e-08  0:00:04   25
  1976  1.5055e-08  9.5516e-08  1.7034e-08  4.6898e-04  1.4968e-08  0:00:03   24
  1977  1.4883e-08  9.4736e-08  1.6852e-08  4.6750e-04  1.4797e-08  0:00:02   23
  1978  1.4716e-08  9.4012e-08  1.6673e-08  4.6550e-04  1.4631e-08  0:00:02   22
  1979  1.4554e-08  9.3344e-08  1.6495e-08  4.6299e-04  1.4470e-08  0:00:01   21
  1980  1.4398e-08  9.2729e-08  1.6320e-08  4.5996e-04  1.4314e-08  0:00:05   20

  iter  continuity  x-velocity  y-velocity  z-velocity      energy     time/iter
  1981  1.4259e-08  9.2156e-08  1.6131e-08  4.5619e-04  1.4176e-08  0:00:04   19
  1982  1.4118e-08  9.1639e-08  1.5953e-08  4.5197e-04  1.4035e-08  0:00:03   18
  1983  1.3977e-08  9.1172e-08  1.5783e-08  4.4733e-04  1.3895e-08  0:00:02   17
  1984  1.3838e-08  9.0751e-08  1.5621e-08  4.4227e-04  1.3757e-08  0:00:02   16
  1985  1.3703e-08  9.0371e-08  1.5464e-08  4.3680e-04  1.3623e-08  0:00:01   15
  1986  1.3573e-08  9.0031e-08  1.5309e-08  4.3091e-04  1.3494e-08  0:00:01   14
  1987  1.3450e-08  8.9727e-08  1.5157e-08  4.2462e-04  1.3371e-08  0:00:01   13
  1988  1.3332e-08  8.9457e-08  1.5008e-08  4.1794e-04  1.3255e-08  0:00:01   12
  1989  1.3222e-08  8.9217e-08  1.4860e-08  4.1088e-04  1.3145e-08  0:00:03   11
  1990  1.3116e-08  8.9005e-08  1.4714e-08  4.0346e-04  1.3040e-08  0:00:02   10
  1991  1.3017e-08  8.8817e-08  1.4571e-08  3.9570e-04  1.2941e-08  0:00:01    9

  iter  continuity  x-velocity  y-velocity  z-velocity      energy     time/iter
  1992  1.2922e-08  8.8649e-08  1.4431e-08  3.8761e-04  1.2847e-08  0:00:01    8
  1993  1.2831e-08  8.8500e-08  1.4293e-08  3.7921e-04  1.2757e-08  0:00:01    7
  1994  1.2744e-08  8.8365e-08  1.4159e-08  3.7052e-04  1.2671e-08  0:00:00    6
  1995  1.2661e-08  8.8242e-08  1.4028e-08  3.6155e-04  1.2589e-08  0:00:00    5
  1996  1.2581e-08  8.8128e-08  1.3899e-08  3.5234e-04  1.2509e-08  0:00:00    4
  1997  1.2504e-08  8.8020e-08  1.3774e-08  3.4290e-04  1.2433e-08  0:00:00    3
  1998  1.2429e-08  8.7915e-08  1.3652e-08  3.3326e-04  1.2359e-08  0:00:00    2
  1999  1.2357e-08  8.7811e-08  1.3532e-08  3.2343e-04  1.2288e-08  0:00:00    1
  2000  1.2288e-08  8.7706e-08  1.3416e-08  3.1346e-04  1.2220e-08  0:00:00    0

> 
adjoint/                parallel/               server/
define/                 parametric-study/       solve/
display/                plot/                   surface/
exit                    preferences/            turbo-workflow/
file/                   print-license-usage     views/
mesh/                   report/

> /file/write-case-data project1
Fast-loading "C:\PROGRA~1\ANSYSI~1\v231\fluent\fluent23.1.0\\addons\afd\lib\hdfio.bin"
Done.

Writing to Engs-30669:"C:\Users\kebl7595\Desktop\CFD\Runs\Actual Data\3 degrees\project1.cas.h5" in NODE0 mode and compression level 1 ...
       12996 cells,     1 zone  ...
       43722 faces,     8 zones ...
       17864 nodes,     1 zone  ...
  Done.
Done.

Writing to Engs-30669:"C:\Users\kebl7595\Desktop\CFD\Runs\Actual Data\3 degrees\project1.dat.h5" in NODE0 mode and compression level 1 ...
  Writing results.
Done.

> /file/export/ascii "./surface.dat" wing te () no pressure mach-number quit no

Writing "./surface.dat"...

Writing information to ascii file ...
Done.


> /plot/plot y "data.dat" no n n pressure-coefficient no n x-coordinate wing ()

> /report/forces/wall-forces y -0.052336 0.99863 0 y "Force"

> /exit

Posting ANSYS Product Improvement Program performance data 
Done.
Auto-Transcript Stop Time:  14:43:10, 20 May 2024 GMT Daylight Time 
Total Transcript Time: 4 Minute 0 Second.
