Auto-Transcript Start Time:  10:44:54, 21 May 2024 GMT Daylight Time 
Current Directory: "C:\Users\kebl7595\Desktop\CFD\Runs\Viscous\27 degree"

              Welcome to ANSYS Fluent 2023 R1

              Copyright 1987-2023 ANSYS, Inc. All Rights Reserved.
              Unauthorized use, distribution or duplication is prohibited.
              This product is subject to U.S. laws governing export and re-export.
              For full Legal Notice, see documentation.

Build Time: Nov 28 2022 09:52:02 EST  Build Id: 10208  
 
Connected License Server List:	1055@ansyslic.eng.ox.ac.uk

*********************************************
Info: Your license enables 4-way parallel execution.
For faster simulations, please start the application with the appropriate parallel options.
*********************************************


     --------------------------------------------------------------
     This is an academic version of ANSYS FLUENT. Usage of this product
     license is limited to the terms and conditions specified in your ANSYS
     license form, additional terms section.
     --------------------------------------------------------------
Host spawning Node 0 on machine "Engs-30669" (win64).

------------------------------------------------------------------------------------
ID    Hostname    Core  O.S.         PID    Vendor                                 
------------------------------------------------------------------------------------
n0    Engs-30669  1/32  Windows-x64  7888   13th Gen Intel(R) Core(TM) i9-13900    
host  Engs-30669        Windows-x64  11244  13th Gen Intel(R) Core(TM) i9-13900    

MPI Option Selected: intel
------------------------------------------------------------------------------------

Cleanup script file is C:\\Users\\kebl7595\\Desktop\\CFD\\Runs\\Viscous\\27 degree\\cleanup-fluent-Engs-30669-11244.bat
QA Service Message :
QA Services Agreement Enabled. This application is included in the scope of an ANSYS QA Services Agreement.
Posting ANSYS Product Improvement Program startup data
Done.

Reading journal file C:/Users/kebl7595/Desktop/CFD/Runs/Viscous/27 degree/project1.jou...

> /file/set-batch-options no no no 

> 
define/                 parametric-study/       solve/
display/                plot/                   surface/
exit                    preferences/            switch-to-meshing-mode
file/                   print-license-usage     turbo-workflow/
mesh/                   report/                 views/
parallel/               server/

> /file/import/cgns/mesh  "./project1.cgns"
Engs-30669 has other FLUENT parallel processes running.                       Process affinity not being set.

Importing "./project1.cgns"

Opening library "C:\\PROGRA~1\\ANSYSI~1\\v231\\fluent\\fluent23.1.0\\vki\\win64\\devtools4.4.6.dll"... done.

Read    17864 nodes
   12996 hexahedral cells, zone  1
    9462 quadrilateral wall faces, zone  2.
   33972 quadrilateral interior faces, zone  3.
     282 quadrilateral interface faces, zone  4.
       6 quadrilateral wall faces, zone  5.

Building...
     mesh
     materials,
     interface,
     domains,
     zones,
	default_exterior-1
	interface-default_subface
	default_interior-1
	default_subface
	default
     parallel,
The automatic selection for flux type has changed to Rhie-Chow: momentum based.

Done.


> 
adjoint/                parallel/               server/
define/                 parametric-study/       solve/
display/                plot/                   surface/
exit                    preferences/            turbo-workflow/
file/                   print-license-usage     views/
mesh/                   report/

> /define/models/solver/density-based-implicit yes

> 
adjoint/                parallel/               server/
define/                 parametric-study/       solve/
display/                plot/                   surface/
exit                    preferences/            turbo-workflow/
file/                   print-license-usage     views/
mesh/                   report/

> /define/models/energy? yes yes invalid command [yes]
yes

> /define/models/viscous/kw-standard? yes

> 
adjoint/                parallel/               server/
define/                 parametric-study/       solve/
display/                plot/                   surface/
exit                    preferences/            turbo-workflow/
file/                   print-license-usage     views/
mesh/                   report/

> /define/materials/change-create air air air is a fluid
yes 
Density
ideal-gas no data required.

no no no no no no

> 
adjoint/                parallel/               server/
define/                 parametric-study/       solve/
display/                plot/                   surface/
exit                    preferences/            turbo-workflow/
file/                   print-license-usage     views/
mesh/                   report/

> /mesh/modify-zones/sep-face-zone-angle 2 90 yes

 4332 faces in contiguous region 0
 228 faces in contiguous region 1
 342 faces in contiguous region 2
 4332 faces in contiguous region 3
 228 faces in contiguous region 4
 Separates zone 2 into 5 zone(s).
Updating new zone information...
   created new zone default_subface:010 from default_subface
   created new zone default_subface:009 from default_subface
   created new zone default_subface:008 from default_subface
   created new zone default_subface:007 from default_subface
done.

> 
adjoint/                parallel/               server/
define/                 parametric-study/       solve/
display/                plot/                   surface/
exit                    preferences/            turbo-workflow/
file/                   print-license-usage     views/
mesh/                   report/

> /define/boundary-conditions/zone-name  5   te

> /define/boundary-conditions/zone-name  7 wing

> /define/boundary-conditions/zone-name  2 sym1

> /define/boundary-conditions/zone-name  9 sym2

> 
adjoint/                parallel/               server/
define/                 parametric-study/       solve/
display/                plot/                   surface/
exit                    preferences/            turbo-workflow/
file/                   print-license-usage     views/
mesh/                   report/

> /define/boundary-conditions/zone-name  8 far1

> /define/boundary-conditions/zone-name 10 far2

> 
adjoint/                parallel/               server/
define/                 parametric-study/       solve/
display/                plot/                   surface/
exit                    preferences/            turbo-workflow/
file/                   print-license-usage     views/
mesh/                   report/

> /define/boundary-conditions/zone-type  8 pressure-far-field

> /define/boundary-conditions/zone-type 10 pressure-far-field

> /define/boundary-conditions/zone-type  2 symmetry

> /define/boundary-conditions/zone-type  9 symmetry

> 
adjoint/                parallel/               server/
define/                 parametric-study/       solve/
display/                plot/                   surface/
exit                    preferences/            turbo-workflow/
file/                   print-license-usage     views/
mesh/                   report/

> /define/boundary-conditions/pressure-far-field (far2 far1)
far1 no 0 no 0.1 no 300 yes no 0.89101 no 0.45399 no 0. no yes 5 0.02

> /define/boundary-conditions/pressure-far-field (far2 far1)
far2 no 0 no 0.1 no 300 yes no 0.89101 no 0.45399 no 0. no yes 5 0.02

> 
adjoint/                parallel/               server/
define/                 parametric-study/       solve/
display/                plot/                   surface/
exit                    preferences/            turbo-workflow/
file/                   print-license-usage     views/
mesh/                   report/

> /solve/initialize/compute-defaults/pressure-far-field (far2 far1)
far1

> /solve/initialize/initialize-flow

> 
adjoint/                parallel/               server/
define/                 parametric-study/       solve/
display/                plot/                   surface/
exit                    preferences/            turbo-workflow/
file/                   print-license-usage     views/
mesh/                   report/

> /solve/monitors/residual/convergence-criteria 1.e-9 1.e-9 1.e-9 1.e-9 1.e-9 1.e-9 1.e-9

> /solve/iterate 2000

  iter  continuity  x-velocity  y-velocity  z-velocity      energy           k       omega     time/iter
     1  1.0000e+00  1.0000e+00  1.0000e+00  1.0000e+00  1.0000e+00  1.7135e-01  1.2921e-01  0:00:00 1999
     2  4.9677e-01  4.4985e-01  4.6558e-01  1.0000e+00  4.9723e-01  1.2900e-01  1.0097e-01  0:33:18 1998
     3  2.6348e-01  2.1625e-01  2.2321e-01  9.2071e-01  2.6366e-01  1.0045e-01  8.1856e-02  0:26:38 1997
     4  1.6219e-01  1.3544e-01  1.2186e-01  6.7172e-01  1.6224e-01  8.1230e-02  6.7874e-02  0:21:17 1996
     5  1.1479e-01  9.9332e-02  7.8846e-02  5.6616e-01  1.1481e-01  6.8753e-02  5.7806e-02  0:17:01 1995
     6  9.1125e-02  7.2946e-02  5.6102e-02  6.2803e-01  9.1162e-02  5.9212e-02  5.0631e-02  0:13:37 1994
     7  7.7924e-02  5.5601e-02  4.2665e-02  6.7995e-01  7.7981e-02  5.1578e-02  4.5024e-02  0:10:53 1993
     8  6.9511e-02  4.4706e-02  3.4343e-02  7.1800e-01  6.9574e-02  4.5338e-02  4.0319e-02  0:15:21 1992
     9  6.4218e-02  3.7967e-02  2.9017e-02  7.1023e-01  6.4275e-02  4.0212e-02  3.6336e-02  0:12:16 1991
    10  6.0951e-02  3.4015e-02  2.5448e-02  7.1020e-01  6.0995e-02  3.5993e-02  3.2942e-02  0:09:49 1990
    11  5.9165e-02  3.2001e-02  2.2961e-02  6.9331e-01  5.9190e-02  3.2559e-02  3.0027e-02  0:07:51 1989

  iter  continuity  x-velocity  y-velocity  z-velocity      energy           k       omega     time/iter
    12  5.8524e-02  3.1425e-02  2.1189e-02  6.7329e-01  5.8530e-02  2.9744e-02  2.7524e-02  0:06:16 1988
    13  5.8794e-02  3.1802e-02  1.9968e-02  6.6084e-01  5.8781e-02  2.7387e-02  2.5389e-02  0:05:01 1987
    14  5.9797e-02  3.2849e-02  1.9218e-02  6.6959e-01  5.9766e-02  2.5381e-02  2.3537e-02  0:10:38 1986
    15  6.1372e-02  3.4398e-02  1.8846e-02  7.0262e-01  6.1322e-02  2.3667e-02  2.1909e-02  0:08:30 1985
    16  6.3361e-02  3.6310e-02  1.8782e-02  7.4227e-01  6.3293e-02  2.2212e-02  2.0470e-02  0:06:48 1984
    17  6.5647e-02  3.8330e-02  1.9046e-02  7.8778e-01  6.5559e-02  2.0934e-02  1.9212e-02  0:05:26 1983
    18  6.8136e-02  4.0409e-02  1.9465e-02  8.4284e-01  6.8027e-02  1.9797e-02  1.8084e-02  0:10:57 1982
    19  7.0738e-02  4.2609e-02  2.0102e-02  9.0878e-01  7.0606e-02  1.8798e-02  1.7072e-02  0:08:45 1981
    20  7.3315e-02  4.4706e-02  2.0913e-02  9.8589e-01  7.3158e-02  1.7918e-02  1.6163e-02  0:07:00 1980
    21  7.5776e-02  4.6618e-02  2.1878e-02  1.0721e+00  7.5590e-02  1.7139e-02  1.5344e-02  0:05:36 1979
    22  7.8008e-02  4.8240e-02  2.2917e-02  1.1626e+00  7.7790e-02  1.6444e-02  1.4601e-02  0:04:29 1978

  iter  continuity  x-velocity  y-velocity  z-velocity      energy           k       omega     time/iter
    23  7.9912e-02  4.9411e-02  2.4108e-02  1.2519e+00  7.9660e-02  1.5826e-02  1.3923e-02  0:03:35 1977
    24  8.1381e-02  5.0084e-02  2.5085e-02  1.3342e+00  8.1092e-02  1.5275e-02  1.3302e-02  0:02:52 1976
    25  8.2437e-02  5.0692e-02  2.5833e-02  1.4084e+00  8.2110e-02  1.4786e-02  1.2720e-02  0:08:52 1975
    26  8.3047e-02  5.1143e-02  2.6418e-02  1.4653e+00  8.2679e-02  1.4342e-02  1.2186e-02  0:07:06 1974
    27  8.3167e-02  5.1341e-02  2.6828e-02  1.5030e+00  8.2758e-02  1.3948e-02  1.1690e-02  0:05:40 1973
    28  8.2742e-02  5.0959e-02  2.7101e-02  1.5193e+00  8.2292e-02  1.3593e-02  1.1215e-02  0:04:32 1972
    29  8.1835e-02  5.0379e-02  2.7062e-02  1.5133e+00  8.1345e-02  1.3260e-02  1.0781e-02  0:03:38 1971
    30  8.0459e-02  4.9858e-02  2.6621e-02  1.4894e+00  7.9931e-02  1.2959e-02  1.0372e-02  0:02:54 1970
    31  7.8612e-02  4.9182e-02  2.5715e-02  1.4537e+00  7.8049e-02  1.2680e-02  9.9847e-03  0:08:53 1969
    32  7.6389e-02  4.8151e-02  2.4995e-02  1.4087e+00  7.5793e-02  1.2414e-02  9.6155e-03  0:07:06 1968
    33  7.3852e-02  4.6972e-02  2.4251e-02  1.3635e+00  7.3228e-02  1.2179e-02  9.2629e-03  0:05:41 1967

  iter  continuity  x-velocity  y-velocity  z-velocity      energy           k       omega     time/iter
    34  7.1019e-02  4.5750e-02  2.3577e-02  1.3327e+00  7.0370e-02  1.1954e-02  8.9345e-03  0:04:32 1966
    35  6.7863e-02  4.3685e-02  2.3399e-02  1.3185e+00  6.7194e-02  1.1779e-02  8.6198e-03  0:03:38 1965
    36  6.4467e-02  4.2015e-02  2.3301e-02  1.3271e+00  6.3782e-02  1.1612e-02  8.3418e-03  0:02:54 1964
    37  6.0890e-02  4.0527e-02  2.3617e-02  1.3573e+00  6.0193e-02  1.1489e-02  8.0994e-03  0:02:19 1963
    38  5.7183e-02  3.9011e-02  2.4575e-02  1.4037e+00  5.6478e-02  1.1404e-02  7.8658e-03  0:08:24 1962
    39  5.3361e-02  3.7537e-02  2.5572e-02  1.4586e+00  5.2653e-02  1.1351e-02  7.6462e-03  0:06:43 1961
    40  4.9524e-02  3.6210e-02  2.7338e-02  1.5124e+00  4.8815e-02  1.1336e-02  7.4590e-03  0:05:22 1960
    41  4.5698e-02  3.5059e-02  2.9518e-02  1.5580e+00  4.4992e-02  1.1352e-02  7.3050e-03  0:04:18 1959
    42  4.1900e-02  3.4044e-02  3.1981e-02  1.5895e+00  4.1199e-02  1.1425e-02  7.1680e-03  0:03:26 1958
    43  3.8130e-02  3.2616e-02  3.4661e-02  1.6033e+00  3.7437e-02  1.1535e-02  7.0250e-03  0:02:45 1957
    44  3.4491e-02  3.2140e-02  3.7395e-02  1.5946e+00  3.3810e-02  1.1689e-02  6.9054e-03  0:08:43 1956

  iter  continuity  x-velocity  y-velocity  z-velocity      energy           k       omega     time/iter
    45  3.1030e-02  3.2185e-02  4.0233e-02  1.5633e+00  3.0363e-02  1.1908e-02  6.8138e-03  0:06:58 1955
    46  2.7793e-02  3.2617e-02  4.3137e-02  1.5101e+00  2.7145e-02  1.2112e-02  6.7350e-03  0:05:34 1954
    47  2.4829e-02  3.3400e-02  4.6055e-02  1.4419e+00  2.4204e-02  1.2375e-02  6.6418e-03  0:04:27 1953
    48  2.2158e-02  3.4386e-02  4.8941e-02  1.3675e+00  2.1564e-02  1.2708e-02  6.5302e-03  0:03:34 1952
    49  1.9826e-02  3.5573e-02  5.1737e-02  1.2935e+00  1.9270e-02  1.3072e-02  6.4327e-03  0:02:51 1951
    50  1.7893e-02  3.6974e-02  5.4397e-02  1.2215e+00  1.7389e-02  1.3445e-02  6.3568e-03  0:02:17 1950
    51  1.6440e-02  3.8578e-02  5.6894e-02  1.1575e+00  1.6001e-02  1.3874e-02  6.2644e-03  0:08:19 1949
    52  1.5527e-02  4.0282e-02  5.9226e-02  1.1066e+00  1.5166e-02  1.4326e-02  6.1453e-03  0:06:39 1948
    53  1.5199e-02  4.2049e-02  6.1376e-02  1.0744e+00  1.4924e-02  1.4779e-02  6.0606e-03  0:05:19 1947
    54  1.5419e-02  4.3867e-02  6.3319e-02  1.0584e+00  1.5228e-02  1.5243e-02  5.9844e-03  0:04:15 1946
    55  1.6090e-02  4.5733e-02  6.5040e-02  1.0566e+00  1.5975e-02  1.5755e-02  5.9005e-03  0:03:24 1945

  iter  continuity  x-velocity  y-velocity  z-velocity      energy           k       omega     time/iter
    56  1.7145e-02  4.7949e-02  6.6402e-02  1.0686e+00  1.7090e-02  1.6273e-02  5.8501e-03  0:02:43 1944
    57  1.8496e-02  4.9972e-02  6.7615e-02  1.0889e+00  1.8485e-02  1.6844e-02  5.8282e-03  0:08:39 1943
    58  2.0033e-02  5.1822e-02  6.8618e-02  1.1151e+00  2.0053e-02  1.7497e-02  5.8318e-03  0:06:55 1942
    59  2.1704e-02  5.3606e-02  6.9373e-02  1.1454e+00  2.1744e-02  1.8212e-02  5.8393e-03  0:05:32 1941
    60  2.3464e-02  5.5381e-02  6.9841e-02  1.1730e+00  2.3514e-02  1.8991e-02  5.8499e-03  0:04:25 1940
    61  2.5277e-02  5.7166e-02  7.0026e-02  1.1954e+00  2.5331e-02  1.9934e-02  5.8780e-03  0:03:32 1939
    62  2.7115e-02  5.8911e-02  6.9933e-02  1.2110e+00  2.7167e-02  2.1022e-02  5.9086e-03  0:02:50 1938
    63  2.8968e-02  6.0570e-02  6.9573e-02  1.2249e+00  2.9017e-02  2.2278e-02  5.9168e-03  0:08:43 1937
    64  3.0822e-02  6.2185e-02  6.8970e-02  1.2320e+00  3.0863e-02  2.3666e-02  5.9126e-03  0:06:58 1936
    65  3.2660e-02  6.3689e-02  6.8122e-02  1.2345e+00  3.2692e-02  2.4901e-02  5.9501e-03  0:05:34 1935
    66  3.4415e-02  6.5016e-02  6.7048e-02  1.2365e+00  3.4437e-02  2.6368e-02  5.9806e-03  0:04:27 1934

  iter  continuity  x-velocity  y-velocity  z-velocity      energy           k       omega     time/iter
    67  3.6053e-02  6.6112e-02  6.5783e-02  1.2413e+00  3.6063e-02  2.8013e-02  6.0153e-03  0:03:34 1933
    68  3.7547e-02  6.6945e-02  6.4346e-02  1.2427e+00  3.7546e-02  2.9520e-02  6.0383e-03  0:02:51 1932
    69  3.8861e-02  6.7495e-02  6.2721e-02  1.2323e+00  3.8848e-02  3.1116e-02  6.0852e-03  0:08:43 1931
    70  3.9928e-02  6.7682e-02  6.0898e-02  1.2141e+00  3.9901e-02  3.2012e-02  6.1072e-03  0:06:58 1930
    71  4.0868e-02  6.7512e-02  5.8942e-02  1.1893e+00  4.0824e-02  3.2920e-02  6.1346e-03  0:05:34 1929
    72  4.1543e-02  6.7015e-02  5.6815e-02  1.1692e+00  4.1482e-02  3.3908e-02  6.1331e-03  0:04:27 1928
    73  4.1898e-02  6.6105e-02  5.4546e-02  1.1495e+00  4.1817e-02  3.4381e-02  6.1362e-03  0:03:34 1927
    74  4.2088e-02  6.4848e-02  5.2240e-02  1.1347e+00  4.1985e-02  3.5292e-02  6.1346e-03  0:09:16 1926
    75  4.2137e-02  6.3196e-02  5.0032e-02  1.1364e+00  4.2011e-02  3.6136e-02  6.1062e-03  0:07:25 1925
    76  4.1894e-02  6.1168e-02  4.7863e-02  1.1375e+00  4.1745e-02  3.6799e-02  6.0821e-03  0:05:56 1924
    77  4.1382e-02  5.8967e-02  4.5891e-02  1.1488e+00  4.1209e-02  3.7313e-02  6.0436e-03  0:04:44 1923

  iter  continuity  x-velocity  y-velocity  z-velocity      energy           k       omega     time/iter
    78  4.0632e-02  5.6697e-02  4.4360e-02  1.1675e+00  4.0434e-02  3.7943e-02  5.9980e-03  0:03:47 1922
    79  3.9613e-02  5.4209e-02  4.3059e-02  1.1888e+00  3.9391e-02  3.8469e-02  5.9515e-03  0:03:02 1921
    80  3.8410e-02  5.1557e-02  4.2133e-02  1.2140e+00  3.8164e-02  3.8984e-02  5.9175e-03  0:08:49 1920
    81  3.7074e-02  4.9023e-02  4.1817e-02  1.2465e+00  3.6806e-02  3.9350e-02  5.9280e-03  0:07:03 1919
    82  3.5573e-02  4.6703e-02  4.2063e-02  1.2789e+00  3.5284e-02  3.9847e-02  5.9098e-03  0:05:38 1918
    83  3.3983e-02  4.4708e-02  4.2740e-02  1.3085e+00  3.3676e-02  4.0646e-02  5.8643e-03  0:04:31 1917
    84  3.2348e-02  4.2773e-02  4.3486e-02  1.3364e+00  3.2025e-02  4.0987e-02  5.8363e-03  0:03:36 1916
    85  3.0670e-02  4.1778e-02  4.4419e-02  1.3650e+00  3.0335e-02  4.0899e-02  5.8085e-03  0:02:53 1915
    86  2.8978e-02  4.0518e-02  4.5660e-02  1.3897e+00  2.8632e-02  4.1071e-02  5.7894e-03  0:08:41 1914
    87  2.7364e-02  3.9465e-02  4.7044e-02  1.4039e+00  2.7012e-02  4.1137e-02  5.7679e-03  0:06:57 1913
    88  2.5918e-02  3.8749e-02  4.8369e-02  1.4082e+00  2.5566e-02  4.1810e-02  5.7418e-03  0:05:33 1912

  iter  continuity  x-velocity  y-velocity  z-velocity      energy           k       omega     time/iter
    89  2.4658e-02  3.7974e-02  4.9349e-02  1.4000e+00  2.4312e-02  4.2388e-02  5.6486e-03  0:04:26 1911
    90  2.3624e-02  3.7420e-02  5.0089e-02  1.3842e+00  2.3292e-02  4.1917e-02  5.5849e-03  0:03:33 1910
    91  2.2699e-02  3.7183e-02  5.0629e-02  1.3476e+00  2.2384e-02  4.1051e-02  5.5307e-03  0:09:12 1909
    92  2.1894e-02  3.7192e-02  5.0878e-02  1.3034e+00  2.1600e-02  4.0368e-02  5.4826e-03  0:07:21 1908
    93  2.1287e-02  3.7442e-02  5.0921e-02  1.2470e+00  2.1019e-02  4.0179e-02  5.4499e-03  0:05:53 1907
    94  2.0955e-02  3.7806e-02  5.0724e-02  1.1935e+00  2.0719e-02  4.0352e-02  5.3830e-03  0:04:42 1906
    95  2.0877e-02  3.8131e-02  5.0264e-02  1.1441e+00  2.0676e-02  4.0380e-02  5.3335e-03  0:03:46 1905
    96  2.0972e-02  3.8354e-02  4.9542e-02  1.1039e+00  2.0806e-02  4.0241e-02  5.2872e-03  0:03:00 1904
    97  2.1161e-02  3.8473e-02  4.8597e-02  1.0716e+00  2.1030e-02  4.0664e-02  5.1777e-03  0:08:45 1903
    98  2.1422e-02  3.8485e-02  4.7457e-02  1.0450e+00  2.1322e-02  4.0623e-02  5.1018e-03  0:07:00 1902
    99  2.1652e-02  3.8481e-02  4.6166e-02  1.0294e+00  2.1580e-02  3.9623e-02  5.0611e-03  0:05:36 1901

  iter  continuity  x-velocity  y-velocity  z-velocity      energy           k       omega     time/iter
   100  2.1869e-02  3.8433e-02  4.4700e-02  1.0229e+00  2.1822e-02  3.9111e-02  5.0090e-03  0:04:28 1900
   101  2.2038e-02  3.8171e-02  4.3053e-02  1.0216e+00  2.2010e-02  3.8883e-02  4.9793e-03  0:03:35 1899
   102  2.2073e-02  3.7702e-02  4.1279e-02  1.0231e+00  2.2062e-02  3.8678e-02  4.9449e-03  0:09:11 1898
   103  2.1964e-02  3.6757e-02  3.9511e-02  1.0276e+00  2.1966e-02  3.9385e-02  4.9494e-03  0:07:21 1897
   104  2.1765e-02  3.5968e-02  3.7529e-02  1.0355e+00  2.1775e-02  3.9698e-02  4.8815e-03  0:05:52 1896
   105  2.1479e-02  3.5172e-02  3.5397e-02  1.0554e+00  2.1495e-02  3.9650e-02  4.8211e-03  0:04:42 1895
   106  2.1162e-02  3.4320e-02  3.3193e-02  1.0868e+00  2.1183e-02  3.9856e-02  4.7466e-03  0:03:45 1894
   107  2.0899e-02  3.3391e-02  3.0976e-02  1.1287e+00  2.0921e-02  3.9710e-02  4.6821e-03  0:03:00 1893
   108  2.0703e-02  3.2371e-02  2.8734e-02  1.1827e+00  2.0725e-02  3.9839e-02  4.6235e-03  0:08:42 1892
   109  2.0458e-02  3.1265e-02  2.6521e-02  1.2409e+00  2.0479e-02  3.9585e-02  4.5547e-03  0:06:58 1891
   110  2.0058e-02  3.0103e-02  2.4363e-02  1.3070e+00  2.0077e-02  3.8856e-02  4.4672e-03  0:05:34 1890

  iter  continuity  x-velocity  y-velocity  z-velocity      energy           k       omega     time/iter
   111  1.9626e-02  2.8882e-02  2.2213e-02  1.3812e+00  1.9642e-02  3.7868e-02  4.3393e-03  0:04:27 1889
   112  1.9073e-02  2.7614e-02  2.0131e-02  1.4627e+00  1.9087e-02  3.6297e-02  4.2198e-03  0:03:34 1888
   113  1.8515e-02  2.6316e-02  1.8164e-02  1.5498e+00  1.8525e-02  3.5224e-02  4.0914e-03  0:09:08 1887
   114  1.8089e-02  2.4992e-02  1.6326e-02  1.6395e+00  1.8094e-02  3.4076e-02  3.9952e-03  0:07:18 1886
   115  1.7664e-02  2.3672e-02  1.4660e-02  1.7162e+00  1.7665e-02  3.2894e-02  3.8983e-03  0:05:50 1885
   116  1.7351e-02  2.2346e-02  1.3232e-02  1.7814e+00  1.7347e-02  3.2210e-02  3.8040e-03  0:04:40 1884
   117  1.7119e-02  2.1121e-02  1.2024e-02  1.8279e+00  1.7109e-02  3.1524e-02  3.6913e-03  0:03:44 1883
   118  1.6960e-02  1.9943e-02  1.1074e-02  1.8644e+00  1.6946e-02  3.0558e-02  3.6203e-03  0:09:16 1882
   119  1.6840e-02  1.9023e-02  1.0309e-02  1.8979e+00  1.6821e-02  2.9333e-02  3.5260e-03  0:07:24 1881
   120  1.6798e-02  1.8324e-02  9.7909e-03  1.9318e+00  1.6775e-02  2.8275e-02  3.4389e-03  0:05:55 1880
   121  1.6619e-02  1.7605e-02  9.5598e-03  1.9643e+00  1.6592e-02  2.7557e-02  3.3700e-03  0:04:44 1879

  iter  continuity  x-velocity  y-velocity  z-velocity      energy           k       omega     time/iter
   122  1.6338e-02  1.7299e-02  9.4549e-03  1.9910e+00  1.6309e-02  2.7271e-02  3.3152e-03  0:03:47 1878
   123  1.5916e-02  1.7043e-02  9.4147e-03  2.0143e+00  1.5884e-02  2.6886e-02  3.2427e-03  0:03:02 1877
   124  1.5299e-02  1.7080e-02  9.4967e-03  2.0294e+00  1.5267e-02  2.6555e-02  3.1679e-03  0:08:40 1876
   125  1.4550e-02  1.7357e-02  9.6817e-03  2.0344e+00  1.4518e-02  2.6029e-02  3.0868e-03  0:06:56 1875
   126  1.3653e-02  1.7726e-02  9.9023e-03  2.0285e+00  1.3620e-02  2.5786e-02  2.9996e-03  0:05:33 1874
   127  1.2785e-02  1.8128e-02  1.0107e-02  2.0121e+00  1.2753e-02  2.5594e-02  2.9195e-03  0:04:26 1873
   128  1.2251e-02  1.8562e-02  1.0252e-02  1.9918e+00  1.2217e-02  2.5388e-02  2.8615e-03  0:03:33 1872
   129  1.2412e-02  1.8992e-02  1.0329e-02  1.9671e+00  1.2376e-02  2.5397e-02  2.7930e-03  0:09:04 1871
   130  1.3095e-02  1.9392e-02  1.0335e-02  1.9397e+00  1.3056e-02  2.5268e-02  2.7299e-03  0:07:15 1870
   131  1.3771e-02  1.9737e-02  1.0281e-02  1.9094e+00  1.3729e-02  2.5228e-02  2.6695e-03  0:05:48 1869
   132  1.4149e-02  2.0008e-02  1.0186e-02  1.8775e+00  1.4106e-02  2.5208e-02  2.6035e-03  0:04:38 1868

  iter  continuity  x-velocity  y-velocity  z-velocity      energy           k       omega     time/iter
   133  1.4188e-02  2.0185e-02  1.0058e-02  1.8461e+00  1.4143e-02  2.5023e-02  2.5514e-03  0:03:42 1867
   134  1.3957e-02  2.0275e-02  9.9187e-03  1.8151e+00  1.3911e-02  2.4642e-02  2.5158e-03  0:02:58 1866
   135  1.3600e-02  2.0278e-02  9.7765e-03  1.7853e+00  1.3552e-02  2.4176e-02  2.4966e-03  0:08:35 1865
   136  1.3330e-02  2.0218e-02  9.6004e-03  1.7544e+00  1.3281e-02  2.3578e-02  2.4668e-03  0:06:52 1864
   137  1.3228e-02  2.0098e-02  9.4149e-03  1.7246e+00  1.3177e-02  2.2741e-02  2.4498e-03  0:05:29 1863
   138  1.3312e-02  1.9834e-02  9.2773e-03  1.6974e+00  1.3259e-02  2.1986e-02  2.4509e-03  0:04:23 1862
   139  1.3548e-02  1.9503e-02  9.1087e-03  1.6723e+00  1.3493e-02  2.1489e-02  2.4536e-03  0:03:31 1861
   140  1.3946e-02  1.9075e-02  8.9611e-03  1.6478e+00  1.3890e-02  2.0897e-02  2.4343e-03  0:09:00 1860
   141  1.4413e-02  1.8559e-02  8.7935e-03  1.6251e+00  1.4356e-02  2.0567e-02  2.4122e-03  0:07:12 1859
   142  1.4754e-02  1.8083e-02  8.6817e-03  1.6013e+00  1.4696e-02  2.0289e-02  2.3869e-03  0:05:45 1858
   143  1.4934e-02  1.7506e-02  8.6589e-03  1.5818e+00  1.4875e-02  2.0012e-02  2.3741e-03  0:04:36 1857

  iter  continuity  x-velocity  y-velocity  z-velocity      energy           k       omega     time/iter
   144  1.4996e-02  1.6904e-02  8.6561e-03  1.5634e+00  1.4938e-02  1.9953e-02  2.3565e-03  0:03:41 1856
   145  1.4853e-02  1.6305e-02  8.6693e-03  1.5456e+00  1.4794e-02  2.0403e-02  2.3454e-03  0:09:08 1855
   146  1.4451e-02  1.5942e-02  8.7382e-03  1.5317e+00  1.4393e-02  2.1006e-02  2.3372e-03  0:07:18 1854
   147  1.3901e-02  1.5498e-02  8.9030e-03  1.5143e+00  1.3845e-02  2.1594e-02  2.3289e-03  0:05:50 1853
   148  1.3276e-02  1.5033e-02  9.0981e-03  1.4948e+00  1.3222e-02  2.2242e-02  2.3211e-03  0:04:40 1852
   149  1.2598e-02  1.4598e-02  9.2966e-03  1.4677e+00  1.2547e-02  2.3088e-02  2.3200e-03  0:03:44 1851
   150  1.1868e-02  1.4235e-02  9.4873e-03  1.4318e+00  1.1820e-02  2.3995e-02  2.3299e-03  0:09:09 1850
   151  1.1137e-02  1.3949e-02  9.6777e-03  1.3922e+00  1.1092e-02  2.5184e-02  2.3318e-03  0:07:19 1849
   152  1.0445e-02  1.3722e-02  9.8544e-03  1.3491e+00  1.0404e-02  2.6869e-02  2.3378e-03  0:05:51 1848
   153  9.8129e-03  1.3554e-02  9.9989e-03  1.3014e+00  9.7774e-03  2.8161e-02  2.3606e-03  0:04:41 1847
   154  9.2246e-03  1.3455e-02  1.0116e-02  1.2509e+00  9.1947e-03  2.9371e-02  2.3805e-03  0:03:44 1846

  iter  continuity  x-velocity  y-velocity  z-velocity      energy           k       omega     time/iter
   155  8.7299e-03  1.3399e-02  1.0201e-02  1.2061e+00  8.7061e-03  3.0684e-02  2.4096e-03  0:09:08 1845
   156  8.3913e-03  1.3392e-02  1.0252e-02  1.1663e+00  8.3737e-03  3.2241e-02  2.4313e-03  0:07:18 1844
   157  8.1836e-03  1.3410e-02  1.0259e-02  1.1360e+00  8.1721e-03  3.3811e-02  2.4471e-03  0:05:51 1843
   158  8.1598e-03  1.3458e-02  1.0223e-02  1.1076e+00  8.1536e-03  3.4208e-02  2.4177e-03  0:04:40 1842
   159  8.3200e-03  1.3536e-02  1.0146e-02  1.0892e+00  8.3179e-03  3.5128e-02  2.4128e-03  0:03:44 1841
   160  8.5948e-03  1.3611e-02  1.0032e-02  1.0816e+00  8.5955e-03  3.5500e-02  2.3939e-03  0:02:59 1840
   161  8.9808e-03  1.3702e-02  9.8901e-03  1.0858e+00  8.9830e-03  3.4734e-02  2.3613e-03  0:08:31 1839
   162  9.4433e-03  1.3834e-02  9.7294e-03  1.0999e+00  9.4456e-03  3.3859e-02  2.3615e-03  0:06:49 1838
   163  9.9417e-03  1.3989e-02  9.5491e-03  1.1245e+00  9.9433e-03  3.3488e-02  2.3244e-03  0:05:27 1837
   164  1.0436e-02  1.4149e-02  9.3467e-03  1.1583e+00  1.0436e-02  3.2657e-02  2.3112e-03  0:04:21 1836
   165  1.0894e-02  1.4283e-02  9.1224e-03  1.2089e+00  1.0892e-02  3.1398e-02  2.2956e-03  0:03:29 1835

  iter  continuity  x-velocity  y-velocity  z-velocity      energy           k       omega     time/iter
   166  1.1288e-02  1.4345e-02  8.8832e-03  1.2800e+00  1.1284e-02  3.0282e-02  2.2781e-03  0:08:54 1834
   167  1.1611e-02  1.4346e-02  8.6389e-03  1.3669e+00  1.1605e-02  2.9565e-02  2.2413e-03  0:07:07 1833
   168  1.1875e-02  1.4365e-02  8.3990e-03  1.4673e+00  1.1865e-02  2.9479e-02  2.2211e-03  0:05:41 1832
   169  1.2042e-02  1.4372e-02  8.1611e-03  1.5689e+00  1.2030e-02  2.9622e-02  2.2066e-03  0:04:33 1831
   170  1.2070e-02  1.4311e-02  7.9229e-03  1.6867e+00  1.2056e-02  2.9430e-02  2.1877e-03  0:03:38 1830
   171  1.2017e-02  1.4175e-02  7.6956e-03  1.7868e+00  1.2000e-02  2.8719e-02  2.1315e-03  0:02:54 1829
   172  1.1926e-02  1.3985e-02  7.4775e-03  1.8697e+00  1.1907e-02  2.8624e-02  2.0929e-03  0:08:25 1828
   173  1.1615e-02  1.3727e-02  7.2484e-03  1.9395e+00  1.1594e-02  2.8847e-02  2.0160e-03  0:06:44 1827
   174  1.1087e-02  1.3385e-02  7.0183e-03  1.9917e+00  1.1064e-02  2.9101e-02  1.9611e-03  0:05:23 1826
   175  1.0685e-02  1.2961e-02  6.8072e-03  2.0257e+00  1.0661e-02  2.9005e-02  1.8912e-03  0:04:18 1825
   176  9.7850e-03  1.2478e-02  6.6183e-03  2.0429e+00  9.7602e-03  2.8712e-02  1.8412e-03  0:03:26 1824

  iter  continuity  x-velocity  y-velocity  z-velocity      energy           k       omega     time/iter
   177  8.9461e-03  1.1940e-02  6.4579e-03  2.0360e+00  8.9205e-03  2.8016e-02  1.7700e-03  0:08:50 1823
   178  8.2636e-03  1.1363e-02  6.3380e-03  2.0050e+00  8.2372e-03  2.7741e-02  1.6979e-03  0:07:03 1822
   179  7.7814e-03  1.0792e-02  6.2760e-03  1.9517e+00  7.7546e-03  2.7086e-02  1.6562e-03  0:05:39 1821
   180  7.5585e-03  1.0269e-02  6.2834e-03  1.8794e+00  7.5316e-03  2.6663e-02  1.6092e-03  0:04:31 1820
   181  7.6243e-03  9.8382e-03  6.3828e-03  1.7946e+00  7.5980e-03  2.5753e-02  1.5763e-03  0:03:36 1819
   182  7.9780e-03  9.5418e-03  6.5564e-03  1.7027e+00  7.9528e-03  2.4416e-02  1.5552e-03  0:08:57 1818
   183  8.5450e-03  9.3920e-03  6.8044e-03  1.6074e+00  8.5209e-03  2.3280e-02  1.5404e-03  0:07:09 1817
   184  9.2284e-03  9.3902e-03  7.0990e-03  1.5188e+00  9.2056e-03  2.2487e-02  1.5292e-03  0:05:43 1816
   185  9.9341e-03  9.5552e-03  7.4036e-03  1.4443e+00  9.9125e-03  2.1827e-02  1.5324e-03  0:04:34 1815
   186  1.0633e-02  9.8407e-03  7.7264e-03  1.3889e+00  1.0613e-02  2.1303e-02  1.5601e-03  0:03:39 1814
   187  1.1207e-02  1.0169e-02  8.0293e-03  1.3571e+00  1.1188e-02  2.1050e-02  1.6233e-03  0:08:58 1813

  iter  continuity  x-velocity  y-velocity  z-velocity      energy           k       omega     time/iter
   188  1.1518e-02  1.0507e-02  8.3161e-03  1.3448e+00  1.1500e-02  2.0806e-02  1.6980e-03  0:07:10 1812
   189  1.1532e-02  1.0863e-02  8.5786e-03  1.3440e+00  1.1516e-02  2.0648e-02  1.7608e-03  0:05:44 1811
   190  1.1271e-02  1.1221e-02  8.8043e-03  1.3510e+00  1.1257e-02  2.0812e-02  1.8206e-03  0:04:35 1810
   191  1.0852e-02  1.1573e-02  8.9359e-03  1.3564e+00  1.0839e-02  2.1365e-02  1.8530e-03  0:03:40 1809
   192  1.0292e-02  1.1803e-02  9.0276e-03  1.3553e+00  1.0280e-02  2.1362e-02  1.9001e-03  0:08:57 1808
   193  9.6379e-03  1.1989e-02  9.0715e-03  1.3498e+00  9.6273e-03  2.1312e-02  1.9208e-03  0:07:10 1807
   194  8.9389e-03  1.2155e-02  9.0696e-03  1.3457e+00  8.9288e-03  2.1005e-02  1.9144e-03  0:05:44 1806
   195  8.2314e-03  1.2269e-02  9.0258e-03  1.3423e+00  8.2212e-03  2.0768e-02  1.9026e-03  0:04:35 1805
   196  7.5682e-03  1.2319e-02  8.9318e-03  1.3355e+00  7.5569e-03  2.0618e-02  1.9012e-03  0:03:40 1804
   197  7.0323e-03  1.2327e-02  8.7940e-03  1.3209e+00  7.0192e-03  2.0512e-02  1.8899e-03  0:08:56 1803
   198  6.6663e-03  1.2287e-02  8.6185e-03  1.3048e+00  6.6507e-03  2.0260e-02  1.8559e-03  0:07:09 1802

  iter  continuity  x-velocity  y-velocity  z-velocity      energy           k       omega     time/iter
   199  6.4931e-03  1.2175e-02  8.4117e-03  1.2963e+00  6.4744e-03  1.9971e-02  1.7944e-03  0:05:43 1801
   200  6.5468e-03  1.2032e-02  8.1911e-03  1.2986e+00  6.5251e-03  1.9213e-02  1.7498e-03  0:04:34 1800
   201  6.7963e-03  1.1895e-02  7.9722e-03  1.2949e+00  6.7717e-03  1.8145e-02  1.7035e-03  0:03:39 1799
   202  7.1845e-03  1.1767e-02  7.7760e-03  1.2888e+00  7.1574e-03  1.7545e-02  1.6442e-03  0:02:55 1798
   203  7.6688e-03  1.1669e-02  7.6202e-03  1.2836e+00  7.6398e-03  1.7076e-02  1.6024e-03  0:08:19 1797
   204  8.1703e-03  1.1577e-02  7.4807e-03  1.2785e+00  8.1393e-03  1.6511e-02  1.5808e-03  0:06:39 1796
   205  8.6496e-03  1.1470e-02  7.3249e-03  1.2699e+00  8.6168e-03  1.6556e-02  1.5695e-03  0:05:19 1795
   206  9.0880e-03  1.1423e-02  7.2187e-03  1.2676e+00  9.0535e-03  1.6770e-02  1.5680e-03  0:04:15 1794
   207  9.4563e-03  1.1402e-02  7.1677e-03  1.2692e+00  9.4204e-03  1.6952e-02  1.5640e-03  0:03:24 1793
   208  9.7153e-03  1.1367e-02  7.1425e-03  1.2724e+00  9.6780e-03  1.7049e-02  1.5702e-03  0:02:43 1792
   209  9.8451e-03  1.1294e-02  7.1467e-03  1.2560e+00  9.8067e-03  1.7076e-02  1.5683e-03  0:08:09 1791

  iter  continuity  x-velocity  y-velocity  z-velocity      energy           k       omega     time/iter
   210  9.8408e-03  1.1202e-02  7.1782e-03  1.2360e+00  9.8014e-03  1.6972e-02  1.5601e-03  0:06:31 1790
   211  9.6986e-03  1.1102e-02  7.2160e-03  1.2088e+00  9.6583e-03  1.6843e-02  1.5825e-03  0:05:12 1789
   212  9.4246e-03  1.1001e-02  7.2514e-03  1.1836e+00  9.3838e-03  1.6881e-02  1.6062e-03  0:04:10 1788
   213  9.0186e-03  1.0889e-02  7.2922e-03  1.1568e+00  8.9774e-03  1.7162e-02  1.6292e-03  0:03:20 1787
   214  8.5180e-03  1.0715e-02  7.3322e-03  1.1297e+00  8.4767e-03  1.7175e-02  1.6356e-03  0:08:37 1786
   215  7.9258e-03  1.0500e-02  7.3651e-03  1.1073e+00  7.8846e-03  1.6926e-02  1.6464e-03  0:06:53 1785
   216  7.2562e-03  1.0209e-02  7.3756e-03  1.0855e+00  7.2152e-03  1.6758e-02  1.6481e-03  0:05:30 1784
   217  6.5613e-03  9.9381e-03  7.3800e-03  1.0683e+00  6.5210e-03  1.6448e-02  1.6396e-03  0:04:24 1783
   218  5.9001e-03  9.6432e-03  7.3783e-03  1.0581e+00  5.8608e-03  1.5964e-02  1.6320e-03  0:03:31 1782
   219  5.3370e-03  9.3120e-03  7.3598e-03  1.0596e+00  5.2996e-03  1.5499e-02  1.6258e-03  0:02:49 1781
   220  4.9303e-03  8.9726e-03  7.3217e-03  1.0690e+00  4.8959e-03  1.5048e-02  1.6376e-03  0:08:11 1780

  iter  continuity  x-velocity  y-velocity  z-velocity      energy           k       omega     time/iter
   221  4.7279e-03  8.6420e-03  7.2598e-03  1.0741e+00  4.6978e-03  1.4807e-02  1.6334e-03  0:06:33 1779
   222  4.7136e-03  8.3259e-03  7.1780e-03  1.0834e+00  4.6886e-03  1.4518e-02  1.6251e-03  0:05:14 1778
   223  4.8446e-03  8.0297e-03  7.0891e-03  1.0951e+00  4.8247e-03  1.4291e-02  1.6149e-03  0:10:06 1777
   224  5.0611e-03  7.7689e-03  6.9882e-03  1.1158e+00  5.0459e-03  1.4153e-02  1.6059e-03  0:08:05 1776
   225  5.2970e-03  7.5461e-03  6.8746e-03  1.1508e+00  5.2857e-03  1.4017e-02  1.5960e-03  0:06:28 1775
   226  5.5124e-03  7.3767e-03  6.7505e-03  1.1912e+00  5.5041e-03  1.3730e-02  1.5832e-03  0:05:10 1774
   227  5.6758e-03  7.2597e-03  6.6196e-03  1.2309e+00  5.6701e-03  1.3368e-02  1.5740e-03  0:04:08 1773
   228  5.7774e-03  7.2015e-03  6.4795e-03  1.2618e+00  5.7736e-03  1.3227e-02  1.5672e-03  0:03:18 1772
   229  5.8101e-03  7.2012e-03  6.3282e-03  1.2846e+00  5.8078e-03  1.3212e-02  1.5767e-03  0:08:33 1771
   230  5.7790e-03  7.2465e-03  6.1695e-03  1.2982e+00  5.7778e-03  1.3092e-02  1.5763e-03  0:06:50 1770
   231  5.7074e-03  7.3137e-03  5.9982e-03  1.3032e+00  5.7070e-03  1.2963e-02  1.5754e-03  0:05:28 1769

  iter  continuity  x-velocity  y-velocity  z-velocity      energy           k       omega     time/iter
   232  5.5985e-03  7.3757e-03  5.8156e-03  1.2998e+00  5.5984e-03  1.2905e-02  1.5655e-03  0:04:22 1768
   233  5.4681e-03  7.3832e-03  5.6248e-03  1.2865e+00  5.4679e-03  1.2918e-02  1.5568e-03  0:03:29 1767
   234  5.3493e-03  7.3431e-03  5.4314e-03  1.2682e+00  5.3483e-03  1.3121e-02  1.5410e-03  0:02:48 1766
   235  5.2549e-03  7.3389e-03  5.2143e-03  1.2445e+00  5.2529e-03  1.3267e-02  1.5097e-03  0:08:07 1765
   236  5.2017e-03  7.3208e-03  4.9992e-03  1.2164e+00  5.1984e-03  1.3209e-02  1.4849e-03  0:06:29 1764
   237  5.1921e-03  7.2826e-03  4.7777e-03  1.1834e+00  5.1871e-03  1.3015e-02  1.4561e-03  0:05:11 1763
   238  5.2343e-03  7.2130e-03  4.5600e-03  1.1519e+00  5.2273e-03  1.2755e-02  1.4159e-03  0:04:09 1762
   239  5.3282e-03  7.1451e-03  4.3540e-03  1.1170e+00  5.3191e-03  1.2477e-02  1.3610e-03  0:03:19 1761
   240  5.4603e-03  7.0794e-03  4.1621e-03  1.0764e+00  5.4489e-03  1.2149e-02  1.3168e-03  0:08:31 1760
   241  5.6153e-03  7.0162e-03  3.9861e-03  1.0313e+00  5.6015e-03  1.1743e-02  1.2804e-03  0:06:49 1759
   242  5.7824e-03  6.8907e-03  3.8482e-03  9.8851e-01  5.7663e-03  1.1344e-02  1.2375e-03  0:05:27 1758

  iter  continuity  x-velocity  y-velocity  z-velocity      energy           k       omega     time/iter
   243  5.9509e-03  6.7638e-03  3.7154e-03  9.5240e-01  5.9324e-03  1.0882e-02  1.1947e-03  0:04:21 1757
   244  6.1118e-03  6.6301e-03  3.6064e-03  9.2142e-01  6.0910e-03  1.0569e-02  1.1449e-03  0:03:29 1756
   245  6.2502e-03  6.4936e-03  3.5262e-03  8.9605e-01  6.2270e-03  1.0363e-02  1.0958e-03  0:02:47 1755
   246  6.3528e-03  6.3589e-03  3.4732e-03  8.7375e-01  6.3274e-03  1.0172e-02  1.0472e-03  0:08:04 1754
   247  6.4206e-03  6.2465e-03  3.4422e-03  8.5327e-01  6.3929e-03  9.9076e-03  1.0095e-03  0:06:27 1753
   248  6.4556e-03  6.1790e-03  3.4292e-03  8.3424e-01  6.4256e-03  9.6589e-03  9.7096e-04  0:05:10 1752
   249  6.4607e-03  6.1455e-03  3.4297e-03  8.1488e-01  6.4285e-03  9.3285e-03  9.3747e-04  0:04:08 1751
   250  6.4365e-03  6.1235e-03  3.4415e-03  7.9275e-01  6.4021e-03  8.8442e-03  9.0088e-04  0:03:18 1750
   251  6.3879e-03  6.0994e-03  3.4629e-03  7.6822e-01  6.3513e-03  8.4180e-03  8.7215e-04  0:02:38 1749
   252  6.3213e-03  6.0687e-03  3.4854e-03  7.4040e-01  6.2827e-03  8.1313e-03  8.4428e-04  0:07:56 1748
   253  6.2457e-03  6.0296e-03  3.5061e-03  7.0889e-01  6.2052e-03  7.8752e-03  8.1213e-04  0:06:21 1747

  iter  continuity  x-velocity  y-velocity  z-velocity      energy           k       omega     time/iter
   254  6.1668e-03  5.9811e-03  3.5322e-03  6.7463e-01  6.1245e-03  7.6065e-03  7.8806e-04  0:05:04 1746
   255  6.0881e-03  5.9352e-03  3.5639e-03  6.3868e-01  6.0443e-03  7.3684e-03  7.6650e-04  0:04:03 1745
   256  6.0141e-03  5.8779e-03  3.6011e-03  6.0456e-01  5.9691e-03  7.1842e-03  7.5500e-04  0:03:15 1744
   257  5.9460e-03  5.8029e-03  3.6486e-03  5.7297e-01  5.9001e-03  7.0293e-03  7.4417e-04  0:02:36 1743
   258  5.8769e-03  5.7106e-03  3.7109e-03  5.4404e-01  5.8304e-03  6.8441e-03  7.2656e-04  0:07:53 1742
   259  5.8053e-03  5.6053e-03  3.7909e-03  5.1777e-01  5.7586e-03  6.6503e-03  7.0245e-04  0:06:18 1741
   260  5.7226e-03  5.4975e-03  3.8910e-03  4.9878e-01  5.6760e-03  6.5326e-03  6.8926e-04  0:05:02 1740
   261  5.6206e-03  5.3887e-03  4.0122e-03  4.8583e-01  5.5744e-03  6.3983e-03  6.8523e-04  0:04:02 1739
   262  5.4929e-03  5.2848e-03  4.1543e-03  4.8139e-01  5.4474e-03  6.2016e-03  6.7698e-04  0:03:13 1738
   263  5.3366e-03  5.1863e-03  4.3166e-03  4.7906e-01  5.2920e-03  6.0124e-03  6.7161e-04  0:02:34 1737
   264  5.1474e-03  5.0994e-03  4.4964e-03  4.7803e-01  5.1038e-03  5.7678e-03  6.6751e-04  0:07:51 1736

  iter  continuity  x-velocity  y-velocity  z-velocity      energy           k       omega     time/iter
   265  4.9247e-03  5.0306e-03  4.6921e-03  4.7816e-01  4.8824e-03  5.5462e-03  6.6548e-04  0:06:16 1735
   266  4.6729e-03  4.9865e-03  4.8993e-03  4.7774e-01  4.6321e-03  5.3427e-03  6.6005e-04  0:05:01 1734
   267  4.3963e-03  4.9735e-03  5.1129e-03  4.7856e-01  4.3572e-03  5.1168e-03  6.5797e-04  0:04:01 1733
   268  4.1006e-03  4.9948e-03  5.3278e-03  4.8093e-01  4.0634e-03  4.8666e-03  6.5446e-04  0:03:12 1732
   269  3.7935e-03  5.0519e-03  5.5385e-03  4.8455e-01  3.7586e-03  4.6063e-03  6.4855e-04  0:08:20 1731
   270  3.4842e-03  5.1422e-03  5.7394e-03  4.8795e-01  3.4518e-03  4.3551e-03  6.4205e-04  0:06:40 1730
   271  3.1831e-03  5.2656e-03  5.9247e-03  4.9114e-01  3.1536e-03  4.1051e-03  6.3540e-04  0:05:20 1729
   272  2.9042e-03  5.4195e-03  6.0890e-03  4.9392e-01  2.8780e-03  3.8774e-03  6.2160e-04  0:04:16 1728
   273  2.6616e-03  5.5971e-03  6.2289e-03  4.9627e-01  2.6392e-03  3.6697e-03  6.0812e-04  0:03:24 1727
   274  2.4703e-03  5.7898e-03  6.3401e-03  4.9778e-01  2.4522e-03  3.4889e-03  5.9391e-04  0:02:43 1726
   275  2.3440e-03  5.9934e-03  6.4185e-03  4.9817e-01  2.3303e-03  3.3072e-03  5.7925e-04  0:07:56 1725

  iter  continuity  x-velocity  y-velocity  z-velocity      energy           k       omega     time/iter
   276  2.2877e-03  6.1987e-03  6.4616e-03  4.9781e-01  2.2784e-03  3.1389e-03  5.6771e-04  0:06:20 1724
   277  2.2975e-03  6.3987e-03  6.4683e-03  4.9830e-01  2.2920e-03  3.0198e-03  5.5199e-04  0:05:04 1723
   278  2.3568e-03  6.5854e-03  6.4378e-03  5.0038e-01  2.3543e-03  2.9287e-03  5.4021e-04  0:04:03 1722
   279  2.4477e-03  6.7569e-03  6.3696e-03  5.0304e-01  2.4473e-03  2.8582e-03  5.2737e-04  0:03:14 1721
   280  2.5543e-03  6.9065e-03  6.2644e-03  5.0471e-01  2.5551e-03  2.8274e-03  5.1694e-04  0:02:35 1720
   281  2.6644e-03  7.0305e-03  6.1241e-03  5.0648e-01  2.6657e-03  2.8212e-03  5.0812e-04  0:07:48 1719
   282  2.7675e-03  7.1236e-03  5.9504e-03  5.0757e-01  2.7690e-03  2.8219e-03  4.9027e-04  0:06:14 1718
   283  2.8559e-03  7.1797e-03  5.7464e-03  5.1105e-01  2.8571e-03  2.8316e-03  4.8183e-04  0:04:59 1717
   284  2.9241e-03  7.1975e-03  5.5154e-03  5.1911e-01  2.9249e-03  2.8535e-03  4.7798e-04  0:03:59 1716
   285  2.9686e-03  7.1764e-03  5.2612e-03  5.3214e-01  2.9688e-03  2.8810e-03  4.6791e-04  0:03:11 1715
   286  2.9871e-03  7.1163e-03  4.9885e-03  5.5148e-01  2.9867e-03  2.9233e-03  4.6070e-04  0:02:33 1714

  iter  continuity  x-velocity  y-velocity  z-velocity      energy           k       omega     time/iter
   287  2.9786e-03  7.0171e-03  4.7023e-03  5.7840e-01  2.9775e-03  2.9735e-03  4.5544e-04  0:07:45 1713
   288  2.9434e-03  6.8821e-03  4.4090e-03  6.1422e-01  2.9417e-03  2.9980e-03  4.4291e-04  0:06:12 1712
   289  2.8825e-03  6.7118e-03  4.1143e-03  6.6023e-01  2.8802e-03  3.0229e-03  4.3121e-04  0:04:57 1711
   290  2.7978e-03  6.5079e-03  3.8246e-03  7.2177e-01  2.7950e-03  3.0301e-03  4.1867e-04  0:03:58 1710
   291  2.6924e-03  6.2746e-03  3.5464e-03  8.1184e-01  2.6893e-03  3.0459e-03  4.1243e-04  0:03:10 1709
   292  2.5700e-03  6.0176e-03  3.2864e-03  9.2671e-01  2.5666e-03  3.0507e-03  4.0448e-04  0:02:32 1708
   293  2.4349e-03  5.7434e-03  3.0515e-03  1.0724e+00  2.4313e-03  3.0542e-03  3.9788e-04  0:07:43 1707
   294  2.2924e-03  5.4599e-03  2.8507e-03  1.2514e+00  2.2888e-03  3.0326e-03  3.9281e-04  0:06:10 1706
   295  2.1494e-03  5.1761e-03  2.6943e-03  1.4662e+00  2.1459e-03  3.0086e-03  3.8520e-04  0:04:56 1705
   296  2.0121e-03  4.8994e-03  2.5717e-03  1.7202e+00  2.0089e-03  2.9768e-03  3.7752e-04  0:03:57 1704
   297  1.8878e-03  4.6396e-03  2.4834e-03  2.0219e+00  1.8850e-03  2.9209e-03  3.7703e-04  0:03:09 1703

  iter  continuity  x-velocity  y-velocity  z-velocity      energy           k       omega     time/iter
   298  1.7859e-03  4.4051e-03  2.4301e-03  2.3680e+00  1.7836e-03  2.8806e-03  3.7110e-04  0:02:31 1702
   299  1.7153e-03  4.2031e-03  2.4088e-03  2.7629e+00  1.7135e-03  2.8220e-03  3.7020e-04  0:07:41 1701
   300  1.6786e-03  4.0569e-03  2.4050e-03  3.2045e+00  1.6774e-03  2.7492e-03  3.6885e-04  0:06:09 1700
   301  1.6801e-03  3.9558e-03  2.4215e-03  3.6853e+00  1.6793e-03  2.6876e-03  3.6700e-04  0:04:55 1699
   302  1.7206e-03  3.8620e-03  2.4566e-03  4.2022e+00  1.7200e-03  2.6300e-03  3.7062e-04  0:03:56 1698
   303  1.7941e-03  3.8016e-03  2.4968e-03  4.7523e+00  1.7934e-03  2.5603e-03  3.6712e-04  0:03:08 1697
   304  1.8920e-03  3.7826e-03  2.5334e-03  5.3381e+00  1.8909e-03  2.5067e-03  3.7229e-04  0:02:31 1696
   305  2.0051e-03  3.7967e-03  2.5628e-03  5.9530e+00  2.0033e-03  2.4609e-03  3.7687e-04  0:07:39 1695
   306  2.1254e-03  3.8309e-03  2.5825e-03  6.5863e+00  2.1228e-03  2.4319e-03  3.8169e-04  0:06:07 1694
   307  2.2464e-03  3.8732e-03  2.5903e-03  7.2298e+00  2.2429e-03  2.4443e-03  3.8949e-04  0:04:54 1693
   308  2.3627e-03  3.9121e-03  2.5838e-03  7.8641e+00  2.3580e-03  2.4586e-03  3.9572e-04  0:03:55 1692

  iter  continuity  x-velocity  y-velocity  z-velocity      energy           k       omega     time/iter
   309  2.4701e-03  3.9415e-03  2.5632e-03  8.4849e+00  2.4642e-03  2.4933e-03  4.0361e-04  0:03:08 1691
   310  2.5656e-03  3.9540e-03  2.5283e-03  9.0810e+00  2.5585e-03  2.5316e-03  4.0325e-04  0:02:30 1690
   311  2.6470e-03  3.9466e-03  2.4804e-03  9.6452e+00  2.6386e-03  2.5803e-03  4.0808e-04  0:07:38 1689
   312  2.7124e-03  3.9164e-03  2.4200e-03  1.0171e+01  2.7028e-03  2.6332e-03  4.1322e-04  0:06:06 1688
   313  2.7593e-03  3.8601e-03  2.3437e-03  1.0654e+01  2.7484e-03  2.6896e-03  4.1746e-04  0:04:53 1687
   314  2.7890e-03  3.7786e-03  2.2679e-03  1.1086e+01  2.7771e-03  2.7225e-03  4.1958e-04  0:03:54 1686
   315  2.8004e-03  3.6715e-03  2.1929e-03  1.1460e+01  2.7875e-03  2.7585e-03  4.1725e-04  0:03:07 1685
   316  2.7931e-03  3.5398e-03  2.1218e-03  1.1774e+01  2.7793e-03  2.7828e-03  4.1947e-04  0:08:06 1684
   317  2.7671e-03  3.3853e-03  2.0591e-03  1.2026e+01  2.7527e-03  2.7943e-03  4.1856e-04  0:06:29 1683
   318  2.7232e-03  3.2137e-03  2.0083e-03  1.2216e+01  2.7083e-03  2.8147e-03  4.1879e-04  0:05:11 1682
   319  2.6623e-03  3.0290e-03  1.9737e-03  1.2355e+01  2.6472e-03  2.8194e-03  4.1496e-04  0:04:09 1681

  iter  continuity  x-velocity  y-velocity  z-velocity      energy           k       omega     time/iter
   320  2.5856e-03  2.8373e-03  1.9591e-03  1.2440e+01  2.5705e-03  2.7905e-03  4.0896e-04  0:03:19 1680
   321  2.4944e-03  2.6454e-03  1.9663e-03  1.2474e+01  2.4796e-03  2.7604e-03  4.0872e-04  0:02:39 1679
   322  2.3904e-03  2.4618e-03  1.9952e-03  1.2453e+01  2.3762e-03  2.7324e-03  4.0435e-04  0:07:43 1678
   323  2.2756e-03  2.2965e-03  2.0441e-03  1.2393e+01  2.2623e-03  2.7001e-03  4.0711e-04  0:06:10 1677
   324  2.1522e-03  2.1602e-03  2.1096e-03  1.2303e+01  2.1400e-03  2.6795e-03  3.9761e-04  0:04:56 1676
   325  2.0226e-03  2.0630e-03  2.1871e-03  1.2193e+01  2.0118e-03  2.6615e-03  3.8752e-04  0:03:56 1675
   326  1.8896e-03  2.0105e-03  2.2727e-03  1.2079e+01  1.8805e-03  2.6501e-03  3.7721e-04  0:03:09 1674
   327  1.7567e-03  2.0147e-03  2.3598e-03  1.1960e+01  1.7495e-03  2.6143e-03  3.6991e-04  0:02:31 1673
   328  1.6276e-03  2.0719e-03  2.4443e-03  1.1820e+01  1.6225e-03  2.5811e-03  3.6148e-04  0:07:35 1672
   329  1.5070e-03  2.1739e-03  2.5225e-03  1.1749e+01  1.5041e-03  2.5492e-03  3.5713e-04  0:06:04 1671
   330  1.4004e-03  2.3093e-03  2.5912e-03  1.1709e+01  1.3997e-03  2.5397e-03  3.5125e-04  0:04:51 1670

  iter  continuity  x-velocity  y-velocity  z-velocity      energy           k       omega     time/iter
   331  1.3160e-03  2.4668e-03  2.6473e-03  1.1677e+01  1.3173e-03  2.5377e-03  3.4864e-04  0:03:53 1669
   332  1.2618e-03  2.6358e-03  2.6890e-03  1.1667e+01  1.2647e-03  2.5605e-03  3.5070e-04  0:03:06 1668
   333  1.2450e-03  2.8079e-03  2.7146e-03  1.1676e+01  1.2489e-03  2.5960e-03  3.5023e-04  0:02:29 1667
   334  1.2683e-03  2.9760e-03  2.7232e-03  1.1697e+01  1.2724e-03  2.6297e-03  3.5057e-04  0:07:32 1666
   335  1.3301e-03  3.1347e-03  2.7142e-03  1.1723e+01  1.3337e-03  2.6611e-03  3.5343e-04  0:06:01 1665
   336  1.4252e-03  3.2792e-03  2.6881e-03  1.1753e+01  1.4277e-03  2.6918e-03  3.5063e-04  0:04:49 1664
   337  1.5454e-03  3.4061e-03  2.6457e-03  1.1797e+01  1.5465e-03  2.7272e-03  3.4925e-04  0:03:51 1663
   338  1.6813e-03  3.5135e-03  2.5884e-03  1.1852e+01  1.6808e-03  2.7540e-03  3.4742e-04  0:03:05 1662
   339  1.8250e-03  3.5989e-03  2.5180e-03  1.1902e+01  1.8229e-03  2.7773e-03  3.4390e-04  0:02:28 1661
   340  1.9705e-03  3.6610e-03  2.4368e-03  1.1939e+01  1.9669e-03  2.7895e-03  3.4208e-04  0:07:30 1660
   341  2.1126e-03  3.6994e-03  2.3475e-03  1.1961e+01  2.1076e-03  2.8152e-03  3.4140e-04  0:06:00 1659

  iter  continuity  x-velocity  y-velocity  z-velocity      energy           k       omega     time/iter
   342  2.2452e-03  3.7144e-03  2.2533e-03  1.1964e+01  2.2389e-03  2.8524e-03  3.4260e-04  0:04:48 1658
   343  2.3643e-03  3.7067e-03  2.1576e-03  1.1955e+01  2.3570e-03  2.8861e-03  3.3972e-04  0:03:50 1657
   344  2.4687e-03  3.6761e-03  2.0645e-03  1.1925e+01  2.4604e-03  2.9055e-03  3.4070e-04  0:08:35 1656
   345  2.5555e-03  3.6248e-03  1.9773e-03  1.1881e+01  2.5465e-03  2.9161e-03  3.3874e-04  0:06:52 1655
   346  2.6218e-03  3.5542e-03  1.9001e-03  1.1775e+01  2.6122e-03  2.9271e-03  3.3558e-04  0:05:29 1654
   347  2.6692e-03  3.4658e-03  1.8364e-03  1.1635e+01  2.6591e-03  2.9376e-03  3.3253e-04  0:04:23 1653
   348  2.6933e-03  3.3626e-03  1.7902e-03  1.1449e+01  2.6830e-03  2.9491e-03  3.2762e-04  0:03:30 1652
   349  2.6961e-03  3.2478e-03  1.7686e-03  1.1235e+01  2.6856e-03  2.9273e-03  3.2805e-04  0:02:48 1651
   350  2.6769e-03  3.1236e-03  1.7610e-03  1.1001e+01  2.6664e-03  2.9044e-03  3.2565e-04  0:02:15 1650
   351  2.6353e-03  2.9932e-03  1.7654e-03  1.0739e+01  2.6250e-03  2.8948e-03  3.2925e-04  0:07:17 1649
   352  2.5725e-03  2.8594e-03  1.7809e-03  1.0447e+01  2.5625e-03  2.8869e-03  3.3080e-04  0:05:50 1648

  iter  continuity  x-velocity  y-velocity  z-velocity      energy           k       omega     time/iter
   353  2.4898e-03  2.7262e-03  1.8061e-03  1.0127e+01  2.4802e-03  2.8796e-03  3.3163e-04  0:04:40 1647
   354  2.3893e-03  2.5970e-03  1.8382e-03  9.7939e+00  2.3802e-03  2.8845e-03  3.3170e-04  0:03:44 1646
   355  2.2736e-03  2.4783e-03  1.8728e-03  9.4659e+00  2.2652e-03  2.8981e-03  3.3494e-04  0:02:59 1645
   356  2.1460e-03  2.3745e-03  1.9079e-03  9.1503e+00  2.1383e-03  2.9156e-03  3.3604e-04  0:02:23 1644
   357  2.0088e-03  2.2779e-03  1.9413e-03  8.8607e+00  2.0019e-03  2.9123e-03  3.3878e-04  0:07:23 1643
   358  1.8655e-03  2.1923e-03  1.9703e-03  8.5974e+00  1.8596e-03  2.9049e-03  3.4125e-04  0:05:54 1642
   359  1.7230e-03  2.1214e-03  1.9928e-03  8.3689e+00  1.7180e-03  2.9805e-03  3.4430e-04  0:04:43 1641
   360  1.5870e-03  2.0670e-03  2.0075e-03  8.1694e+00  1.5832e-03  3.0494e-03  3.4544e-04  0:03:46 1640
   361  1.4624e-03  2.0292e-03  2.0134e-03  7.9995e+00  1.4596e-03  3.0894e-03  3.5160e-04  0:03:01 1639
   362  1.3554e-03  2.0065e-03  2.0101e-03  7.8654e+00  1.3536e-03  3.1233e-03  3.5322e-04  0:02:25 1638
   363  1.2728e-03  1.9959e-03  1.9974e-03  7.7558e+00  1.2720e-03  3.1237e-03  3.5632e-04  0:01:56 1637

  iter  continuity  x-velocity  y-velocity  z-velocity      energy           k       omega     time/iter
   364  1.2206e-03  1.9948e-03  1.9752e-03  7.6582e+00  1.2206e-03  3.1058e-03  3.5822e-04  0:07:00 1636
   365  1.2009e-03  1.9995e-03  1.9441e-03  7.5626e+00  1.2013e-03  3.0549e-03  3.5989e-04  0:05:36 1635
   366  1.2120e-03  2.0076e-03  1.9042e-03  7.4604e+00  1.2126e-03  2.9992e-03  3.5944e-04  0:04:28 1634
   367  1.2484e-03  2.0165e-03  1.8564e-03  7.3401e+00  1.2489e-03  2.9454e-03  3.5601e-04  0:03:34 1633
   368  1.3041e-03  2.0239e-03  1.8015e-03  7.1926e+00  1.3041e-03  2.9116e-03  3.5586e-04  0:02:51 1632
   369  1.3707e-03  2.0280e-03  1.7404e-03  7.0288e+00  1.3701e-03  2.9010e-03  3.5426e-04  0:02:17 1631
   370  1.4419e-03  2.0275e-03  1.6743e-03  6.8674e+00  1.4405e-03  2.8821e-03  3.5078e-04  0:07:16 1630
   371  1.5132e-03  2.0216e-03  1.6045e-03  6.7109e+00  1.5111e-03  2.8533e-03  3.4566e-04  0:05:48 1629
   372  1.5804e-03  2.0097e-03  1.5325e-03  6.5485e+00  1.5774e-03  2.8036e-03  3.3864e-04  0:04:38 1628
   373  1.6410e-03  1.9914e-03  1.4597e-03  6.4081e+00  1.6371e-03  2.7742e-03  3.3007e-04  0:03:43 1627
   374  1.6928e-03  1.9668e-03  1.3881e-03  6.2908e+00  1.6882e-03  2.7161e-03  3.2229e-04  0:02:58 1626

  iter  continuity  x-velocity  y-velocity  z-velocity      energy           k       omega     time/iter
   375  1.7343e-03  1.9362e-03  1.3192e-03  6.2015e+00  1.7289e-03  2.6690e-03  3.1449e-04  0:02:22 1625
   376  1.7656e-03  1.8999e-03  1.2549e-03  6.0786e+00  1.7594e-03  2.6127e-03  3.0987e-04  0:01:54 1624
   377  1.7837e-03  1.8583e-03  1.1970e-03  6.0893e+00  1.7767e-03  2.5467e-03  3.0169e-04  0:06:56 1623
   378  1.7887e-03  1.8119e-03  1.1473e-03  6.1535e+00  1.7811e-03  2.4916e-03  2.9287e-04  0:05:32 1622
   379  1.7838e-03  1.7616e-03  1.1078e-03  6.3648e+00  1.7754e-03  2.4272e-03  2.8438e-04  0:04:26 1621
   380  1.7676e-03  1.7084e-03  1.0796e-03  6.5671e+00  1.7587e-03  2.3786e-03  2.7753e-04  0:03:32 1620
   381  1.7408e-03  1.6532e-03  1.0635e-03  6.7982e+00  1.7313e-03  2.3443e-03  2.7139e-04  0:02:50 1619
   382  1.7042e-03  1.5965e-03  1.0555e-03  7.0350e+00  1.6942e-03  2.2975e-03  2.6355e-04  0:02:16 1618
   383  1.6590e-03  1.5403e-03  1.0612e-03  7.2273e+00  1.6486e-03  2.2543e-03  2.5463e-04  0:01:49 1617
   384  1.6074e-03  1.4853e-03  1.0788e-03  7.3750e+00  1.5967e-03  2.2178e-03  2.4691e-04  0:06:50 1616
   385  1.5503e-03  1.4339e-03  1.1052e-03  7.4755e+00  1.5393e-03  2.1719e-03  2.3673e-04  0:05:28 1615

  iter  continuity  x-velocity  y-velocity  z-velocity      energy           k       omega     time/iter
   386  1.4888e-03  1.3874e-03  1.1377e-03  7.5290e+00  1.4776e-03  2.1198e-03  2.2671e-04  0:04:22 1614
   387  1.4241e-03  1.3472e-03  1.1747e-03  7.5460e+00  1.4130e-03  2.0685e-03  2.1499e-04  0:03:30 1613
   388  1.3579e-03  1.3142e-03  1.2145e-03  7.5415e+00  1.3468e-03  2.0263e-03  2.0282e-04  0:02:48 1612
   389  1.2914e-03  1.2895e-03  1.2556e-03  7.5280e+00  1.2805e-03  1.9991e-03  1.9464e-04  0:02:14 1611
   390  1.2263e-03  1.2736e-03  1.2965e-03  7.5026e+00  1.2157e-03  1.9812e-03  1.8975e-04  0:07:09 1610
   391  1.1642e-03  1.2668e-03  1.3360e-03  7.4704e+00  1.1541e-03  1.9529e-03  1.8367e-04  0:05:43 1609
   392  1.1064e-03  1.2692e-03  1.3731e-03  7.4229e+00  1.0969e-03  1.9206e-03  1.7696e-04  0:04:34 1608
   393  1.0542e-03  1.2806e-03  1.4069e-03  7.3605e+00  1.0455e-03  1.8656e-03  1.7279e-04  0:03:39 1607
   394  1.0085e-03  1.2999e-03  1.4367e-03  7.2878e+00  1.0006e-03  1.8190e-03  1.7118e-04  0:02:55 1606
   395  9.7093e-04  1.3263e-03  1.4617e-03  7.2148e+00  9.6410e-04  1.7572e-03  1.6735e-04  0:02:20 1605
   396  9.4163e-04  1.3581e-03  1.4816e-03  7.1263e+00  9.3588e-04  1.6824e-03  1.6227e-04  0:01:52 1604

  iter  continuity  x-velocity  y-velocity  z-velocity      energy           k       omega     time/iter
   397  9.1971e-04  1.3937e-03  1.4959e-03  7.0170e+00  9.1506e-04  1.6119e-03  1.5904e-04  0:06:50 1603
   398  9.0567e-04  1.4316e-03  1.5043e-03  6.8877e+00  9.0209e-04  1.5466e-03  1.5662e-04  0:05:28 1602
   399  8.9966e-04  1.4701e-03  1.5065e-03  6.7507e+00  8.9708e-04  1.4852e-03  1.5630e-04  0:04:22 1601
   400  9.0016e-04  1.5076e-03  1.5028e-03  6.6395e+00  8.9845e-04  1.4184e-03  1.5623e-04  0:03:30 1600
   401  9.0445e-04  1.5429e-03  1.4925e-03  6.5093e+00  9.0347e-04  1.3573e-03  1.5752e-04  0:02:48 1599
   402  9.1211e-04  1.5747e-03  1.4758e-03  6.3690e+00  9.1169e-04  1.2985e-03  1.5915e-04  0:02:14 1598
   403  9.2235e-04  1.6019e-03  1.4527e-03  6.2499e+00  9.2234e-04  1.2403e-03  1.5990e-04  0:07:07 1597
   404  9.3258e-04  1.6235e-03  1.4235e-03  6.1214e+00  9.3283e-04  1.1973e-03  1.5993e-04  0:05:41 1596
   405  9.4280e-04  1.6386e-03  1.3883e-03  5.9980e+00  9.4317e-04  1.1607e-03  1.5878e-04  0:04:33 1595
   406  9.5137e-04  1.6468e-03  1.3476e-03  5.8878e+00  9.5175e-04  1.1280e-03  1.5802e-04  0:03:38 1594
   407  9.5746e-04  1.6474e-03  1.3017e-03  5.7877e+00  9.5777e-04  1.0947e-03  1.5747e-04  0:02:54 1593

  iter  continuity  x-velocity  y-velocity  z-velocity      energy           k       omega     time/iter
   408  9.6049e-04  1.6403e-03  1.2513e-03  5.6970e+00  9.6065e-04  1.0628e-03  1.5712e-04  0:02:19 1592
   409  9.6000e-04  1.6256e-03  1.1968e-03  5.6118e+00  9.5995e-04  1.0306e-03  1.5715e-04  0:01:51 1591
   410  9.5569e-04  1.6032e-03  1.1390e-03  5.5358e+00  9.5540e-04  1.0039e-03  1.5687e-04  0:06:47 1590
   411  9.4741e-04  1.5734e-03  1.0788e-03  5.4747e+00  9.4685e-04  9.7765e-04  1.5673e-04  0:05:25 1589
   412  9.3518e-04  1.5366e-03  1.0171e-03  5.3959e+00  9.3435e-04  9.5370e-04  1.5598e-04  0:04:20 1588
   413  9.1916e-04  1.4932e-03  9.5462e-04  5.2965e+00  9.1806e-04  9.3109e-04  1.5482e-04  0:03:28 1587
   414  8.9967e-04  1.4443e-03  8.9299e-04  5.1790e+00  8.9832e-04  9.0782e-04  1.5402e-04  0:02:46 1586
   415  8.7718e-04  1.3908e-03  8.3451e-04  5.0460e+00  8.7560e-04  8.8354e-04  1.5230e-04  0:02:13 1585
   416  8.5204e-04  1.3329e-03  7.7804e-04  4.9004e+00  8.5025e-04  8.7338e-04  1.5017e-04  0:07:03 1584
   417  8.2482e-04  1.2722e-03  7.2454e-04  4.7401e+00  8.2286e-04  8.7019e-04  1.4768e-04  0:05:38 1583
   418  7.9619e-04  1.2100e-03  6.7557e-04  4.5695e+00  7.9409e-04  8.6875e-04  1.4537e-04  0:04:30 1582

  iter  continuity  x-velocity  y-velocity  z-velocity      energy           k       omega     time/iter
   419  7.6690e-04  1.1477e-03  6.3249e-04  4.3942e+00  7.6468e-04  8.6457e-04  1.4280e-04  0:03:36 1581
   420  7.3778e-04  1.0868e-03  5.9662e-04  4.1866e+00  7.3549e-04  8.5429e-04  1.4023e-04  0:02:53 1580
   421  7.0970e-04  1.0289e-03  5.6830e-04  3.9679e+00  7.0734e-04  8.4621e-04  1.3834e-04  0:02:18 1579
   422  6.8378e-04  9.7586e-04  5.4758e-04  3.7609e+00  6.8137e-04  8.3765e-04  1.3576e-04  0:01:50 1578
   423  6.6118e-04  9.2925e-04  5.3392e-04  3.5889e+00  6.5871e-04  8.3196e-04  1.3345e-04  0:06:44 1577
   424  6.4306e-04  8.9072e-04  5.2650e-04  3.4517e+00  6.4051e-04  8.3228e-04  1.3123e-04  0:05:23 1576
   425  6.3044e-04  8.6132e-04  5.2415e-04  3.3646e+00  6.2777e-04  8.3980e-04  1.2922e-04  0:04:18 1575
   426  6.2410e-04  8.4170e-04  5.2553e-04  3.3440e+00  6.2127e-04  8.4892e-04  1.2745e-04  0:03:26 1574
   427  6.2448e-04  8.3178e-04  5.2933e-04  3.4023e+00  6.2143e-04  8.5817e-04  1.2634e-04  0:08:00 1573
   428  6.3158e-04  8.3087e-04  5.3441e-04  3.5460e+00  6.2824e-04  8.6577e-04  1.2589e-04  0:06:23 1572
   429  6.4497e-04  8.3765e-04  5.3984e-04  3.7672e+00  6.4128e-04  8.7172e-04  1.2580e-04  0:05:07 1571

  iter  continuity  x-velocity  y-velocity  z-velocity      energy           k       omega     time/iter
   430  6.6382e-04  8.5045e-04  5.4499e-04  4.0513e+00  6.5973e-04  8.7624e-04  1.2623e-04  0:04:05 1570
   431  6.8704e-04  8.6744e-04  5.4954e-04  4.3847e+00  6.8249e-04  8.8436e-04  1.2643e-04  0:03:16 1569
   432  7.1346e-04  8.8671e-04  5.5340e-04  4.7522e+00  7.0843e-04  8.8917e-04  1.2708e-04  0:02:37 1568
   433  7.4181e-04  9.0646e-04  5.5675e-04  5.1340e+00  7.3626e-04  8.9026e-04  1.2724e-04  0:02:05 1567
   434  7.7086e-04  9.2527e-04  5.5990e-04  5.5192e+00  7.6477e-04  8.9166e-04  1.2590e-04  0:06:53 1566
   435  7.9949e-04  9.4190e-04  5.6337e-04  5.8928e+00  7.9287e-04  8.9715e-04  1.2470e-04  0:05:30 1565
   436  8.2674e-04  9.5537e-04  5.6779e-04  6.2397e+00  8.1958e-04  9.0132e-04  1.2259e-04  0:04:24 1564
   437  8.5171e-04  9.6486e-04  5.7387e-04  6.5525e+00  8.4403e-04  9.0672e-04  1.1917e-04  0:03:31 1563
   438  8.7366e-04  9.6985e-04  5.8227e-04  6.8297e+00  8.6548e-04  9.0996e-04  1.1600e-04  0:02:49 1562
   439  8.9202e-04  9.7007e-04  5.9355e-04  7.0727e+00  8.8337e-04  9.1173e-04  1.1463e-04  0:02:15 1561
   440  9.0636e-04  9.6546e-04  6.0816e-04  7.2803e+00  8.9727e-04  9.1144e-04  1.1463e-04  0:01:48 1560

  iter  continuity  x-velocity  y-velocity  z-velocity      energy           k       omega     time/iter
   441  9.1638e-04  9.5608e-04  6.2635e-04  7.4534e+00  9.0689e-04  9.0905e-04  1.1543e-04  0:06:38 1559
   442  9.2185e-04  9.4228e-04  6.4705e-04  7.5985e+00  9.1201e-04  9.0409e-04  1.1459e-04  0:05:18 1558
   443  9.2267e-04  9.2456e-04  6.6908e-04  7.7185e+00  9.1254e-04  8.9790e-04  1.1403e-04  0:04:14 1557
   444  9.1909e-04  9.0333e-04  6.9600e-04  7.8140e+00  9.0872e-04  8.8974e-04  1.1311e-04  0:03:23 1556
   445  9.1112e-04  8.7952e-04  7.2606e-04  7.8861e+00  9.0057e-04  8.8215e-04  1.1331e-04  0:02:43 1555
   446  8.9893e-04  8.5400e-04  7.5820e-04  7.9343e+00  8.8828e-04  8.7639e-04  1.1341e-04  0:02:10 1554
   447  8.8276e-04  8.2767e-04  7.9152e-04  7.9562e+00  8.7207e-04  8.7056e-04  1.1268e-04  0:06:55 1553
   448  8.6295e-04  8.0149e-04  8.2517e-04  7.9531e+00  8.5229e-04  8.6749e-04  1.1191e-04  0:05:31 1552
   449  8.3984e-04  7.7644e-04  8.5840e-04  7.9252e+00  8.2930e-04  8.6777e-04  1.1139e-04  0:04:25 1551
   450  8.1384e-04  7.5353e-04  8.9050e-04  7.8759e+00  8.0348e-04  8.7064e-04  1.1046e-04  0:03:32 1550
   451  7.8533e-04  7.3364e-04  9.2082e-04  7.8080e+00  7.7524e-04  8.7527e-04  1.0954e-04  0:02:49 1549

  iter  continuity  x-velocity  y-velocity  z-velocity      energy           k       omega     time/iter
   452  7.5472e-04  7.1762e-04  9.4876e-04  7.7216e+00  7.4497e-04  8.8076e-04  1.0746e-04  0:02:15 1548
   453  7.2242e-04  7.0603e-04  9.7381e-04  7.6174e+00  7.1310e-04  8.7921e-04  1.0721e-04  0:01:48 1547
   454  6.8886e-04  6.9924e-04  9.9553e-04  7.4979e+00  6.8003e-04  8.7503e-04  1.0677e-04  0:06:36 1546
   455  6.5441e-04  6.9737e-04  1.0136e-03  7.3628e+00  6.4614e-04  8.7048e-04  1.0750e-04  0:05:16 1545
   456  6.1944e-04  7.0018e-04  1.0276e-03  7.2147e+00  6.1180e-04  8.6790e-04  1.0822e-04  0:04:13 1544
   457  5.8436e-04  7.0717e-04  1.0375e-03  7.0585e+00  5.7741e-04  8.6631e-04  1.0883e-04  0:03:22 1543
   458  5.4955e-04  7.1767e-04  1.0430e-03  6.8979e+00  5.4334e-04  8.6475e-04  1.0982e-04  0:02:42 1542
   459  5.1539e-04  7.3085e-04  1.0441e-03  6.7385e+00  5.0997e-04  8.6035e-04  1.1013e-04  0:02:09 1541
   460  4.8230e-04  7.4587e-04  1.0408e-03  6.5880e+00  4.7770e-04  8.5608e-04  1.0909e-04  0:01:43 1540
   461  4.5071e-04  7.6183e-04  1.0332e-03  6.4558e+00  4.4695e-04  8.5172e-04  1.0825e-04  0:06:30 1539
   462  4.2106e-04  7.7796e-04  1.0213e-03  6.3478e+00  4.1817e-04  8.4510e-04  1.0931e-04  0:05:12 1538

  iter  continuity  x-velocity  y-velocity  z-velocity      energy           k       omega     time/iter
   463  3.9384e-04  7.9360e-04  1.0053e-03  6.2683e+00  3.9181e-04  8.3541e-04  1.1004e-04  0:04:10 1537
   464  3.6959e-04  8.0820e-04  9.8547e-04  6.2176e+00  3.6839e-04  8.2371e-04  1.0900e-04  0:03:20 1536
   465  3.4879e-04  8.2127e-04  9.6203e-04  6.1928e+00  3.4836e-04  8.1057e-04  1.0795e-04  0:02:39 1535
   466  3.3190e-04  8.3242e-04  9.3533e-04  6.1872e+00  3.3217e-04  7.9579e-04  1.0754e-04  0:02:08 1534
   467  3.1925e-04  8.4136e-04  9.0571e-04  6.1945e+00  3.2010e-04  7.8460e-04  1.0705e-04  0:06:49 1533
   468  3.1099e-04  8.4788e-04  8.7355e-04  6.2108e+00  3.1229e-04  7.7531e-04  1.0661e-04  0:05:27 1532
   469  3.0703e-04  8.5184e-04  8.3924e-04  6.2302e+00  3.0861e-04  7.6810e-04  1.0573e-04  0:04:21 1531
   470  3.0702e-04  8.5314e-04  8.0318e-04  6.2470e+00  3.0874e-04  7.6230e-04  1.0408e-04  0:03:29 1530
   471  3.1042e-04  8.5181e-04  7.6581e-04  6.2571e+00  3.1215e-04  7.5555e-04  1.0199e-04  0:02:47 1529
   472  3.1654e-04  8.4786e-04  7.2752e-04  6.2570e+00  3.1815e-04  7.4631e-04  9.9585e-05  0:02:13 1528
   473  3.2458e-04  8.4136e-04  6.8875e-04  6.2448e+00  3.2600e-04  7.3506e-04  9.6999e-05  0:06:52 1527

  iter  continuity  x-velocity  y-velocity  z-velocity      energy           k       omega     time/iter
   474  3.3379e-04  8.3242e-04  6.4990e-04  6.2212e+00  3.3497e-04  7.2461e-04  9.4883e-05  0:05:29 1526
   475  3.4346e-04  8.2119e-04  6.1137e-04  6.1861e+00  3.4437e-04  7.1327e-04  9.2667e-05  0:04:23 1525
   476  3.5298e-04  8.0782e-04  5.7354e-04  6.1395e+00  3.5361e-04  7.0039e-04  9.0222e-05  0:03:31 1524
   477  3.6184e-04  7.9250e-04  5.3678e-04  6.0817e+00  3.6220e-04  6.8928e-04  8.7960e-05  0:02:48 1523
   478  3.6963e-04  7.7542e-04  5.0145e-04  6.0142e+00  3.6972e-04  6.7853e-04  8.5806e-05  0:02:15 1522
   479  3.7604e-04  7.5679e-04  4.6787e-04  5.9374e+00  3.7589e-04  6.6797e-04  8.3363e-05  0:01:48 1521
   480  3.8083e-04  7.3682e-04  4.3635e-04  5.8525e+00  3.8046e-04  6.6059e-04  8.0857e-05  0:06:30 1520
   481  3.8387e-04  7.1571e-04  4.0717e-04  5.7636e+00  3.8330e-04  6.5285e-04  7.8422e-05  0:05:12 1519
   482  3.8507e-04  6.9366e-04  3.8060e-04  5.6717e+00  3.8434e-04  6.4656e-04  7.6062e-05  0:04:09 1518
   483  3.8445e-04  6.7092e-04  3.5684e-04  5.5722e+00  3.8357e-04  6.4092e-04  7.3588e-05  0:03:19 1517
   484  3.8206e-04  6.4769e-04  3.3605e-04  5.4638e+00  3.8107e-04  6.3584e-04  7.1216e-05  0:02:39 1516

  iter  continuity  x-velocity  y-velocity  z-velocity      energy           k       omega     time/iter
   485  3.7802e-04  6.2420e-04  3.1834e-04  5.3377e+00  3.7694e-04  6.3304e-04  6.8859e-05  0:02:07 1515
   486  3.7251e-04  6.0064e-04  3.0372e-04  5.2042e+00  3.7137e-04  6.3115e-04  6.7013e-05  0:01:42 1514
   487  3.6580e-04  5.7732e-04  2.9288e-04  5.0712e+00  3.6463e-04  6.3312e-04  6.3917e-05  0:06:24 1513
   488  3.5812e-04  5.5434e-04  2.8482e-04  4.9519e+00  3.5693e-04  6.2650e-04  6.2377e-05  0:05:07 1512
   489  3.4975e-04  5.3197e-04  2.7914e-04  4.8504e+00  3.4858e-04  6.1475e-04  6.0915e-05  0:04:05 1511
   490  3.4100e-04  5.1042e-04  2.7535e-04  4.7613e+00  3.3987e-04  5.9839e-04  5.9674e-05  0:03:16 1510
   491  3.3221e-04  4.8992e-04  2.7327e-04  4.6884e+00  3.3115e-04  5.8416e-04  5.8766e-05  0:02:37 1509
   492  3.2372e-04  4.7074e-04  2.7260e-04  4.6359e+00  3.2274e-04  5.6955e-04  5.8387e-05  0:02:05 1508
   493  3.1581e-04  4.5303e-04  2.7304e-04  4.6069e+00  3.1493e-04  5.5438e-04  5.8828e-05  0:06:42 1507
   494  3.0876e-04  4.3696e-04  2.7420e-04  4.6027e+00  3.0799e-04  5.3991e-04  5.8647e-05  0:05:21 1506
   495  3.0274e-04  4.2268e-04  2.7577e-04  4.6245e+00  3.0210e-04  5.2383e-04  5.8130e-05  0:04:17 1505

  iter  continuity  x-velocity  y-velocity  z-velocity      energy           k       omega     time/iter
   496  2.9791e-04  4.1027e-04  2.7743e-04  4.6678e+00  2.9739e-04  5.0651e-04  5.7660e-05  0:03:25 1504
   497  2.9432e-04  3.9979e-04  2.7895e-04  4.7310e+00  2.9392e-04  4.8871e-04  5.7658e-05  0:02:44 1503
   498  2.9198e-04  3.9125e-04  2.8013e-04  4.8132e+00  2.9169e-04  4.7011e-04  5.7772e-05  0:02:11 1502
   499  2.9082e-04  3.8455e-04  2.8081e-04  4.9096e+00  2.9062e-04  4.5084e-04  5.7924e-05  0:01:45 1501
   500  2.9073e-04  3.7958e-04  2.8086e-04  5.0146e+00  2.9060e-04  4.3148e-04  5.8044e-05  0:06:24 1500
   501  2.9154e-04  3.7616e-04  2.8020e-04  5.1227e+00  2.9146e-04  4.1244e-04  5.8235e-05  0:05:07 1499
   502  2.9307e-04  3.7404e-04  2.7880e-04  5.2303e+00  2.9301e-04  3.9421e-04  5.7899e-05  0:04:05 1498
   503  2.9510e-04  3.7298e-04  2.7662e-04  5.3355e+00  2.9503e-04  3.7753e-04  5.7740e-05  0:03:16 1497
   504  2.9742e-04  3.7268e-04  2.7368e-04  5.4372e+00  2.9733e-04  3.6104e-04  5.7969e-05  0:02:37 1496
   505  2.9985e-04  3.7284e-04  2.7002e-04  5.5333e+00  2.9971e-04  3.4557e-04  5.7798e-05  0:02:05 1495
   506  3.0221e-04  3.7316e-04  2.6568e-04  5.6242e+00  3.0199e-04  3.3187e-04  5.7751e-05  0:06:39 1494

  iter  continuity  x-velocity  y-velocity  z-velocity      energy           k       omega     time/iter
   507  3.0434e-04  3.7335e-04  2.6076e-04  5.7121e+00  3.0403e-04  3.1896e-04  5.7658e-05  0:05:19 1493
   508  3.0609e-04  3.7314e-04  2.5534e-04  5.7990e+00  3.0568e-04  3.0674e-04  5.7262e-05  0:04:15 1492
   509  3.0732e-04  3.7228e-04  2.4955e-04  5.8880e+00  3.0679e-04  2.9562e-04  5.6722e-05  0:03:24 1491
   510  3.0788e-04  3.7054e-04  2.4353e-04  5.9818e+00  3.0724e-04  2.8817e-04  5.6592e-05  0:02:43 1490
   511  3.0768e-04  3.6775e-04  2.3745e-04  6.0830e+00  3.0690e-04  2.8302e-04  5.6169e-05  0:02:10 1489
   512  3.0659e-04  3.6377e-04  2.3149e-04  6.1929e+00  3.0569e-04  2.7805e-04  5.5805e-05  0:01:44 1488
   513  3.0452e-04  3.5849e-04  2.2586e-04  6.3115e+00  3.0350e-04  2.7656e-04  5.5445e-05  0:01:23 1487
   514  3.0141e-04  3.5184e-04  2.2068e-04  6.4377e+00  3.0027e-04  2.7519e-04  5.4968e-05  0:06:04 1486
   515  2.9717e-04  3.4381e-04  2.1610e-04  6.5679e+00  2.9593e-04  2.7199e-04  5.4350e-05  0:04:51 1485
   516  2.9178e-04  3.3445e-04  2.1263e-04  6.6956e+00  2.9043e-04  2.6851e-04  5.3630e-05  0:03:53 1484
   517  2.8509e-04  3.2380e-04  2.0980e-04  6.8178e+00  2.8366e-04  2.6578e-04  5.2649e-05  0:03:06 1483

  iter  continuity  x-velocity  y-velocity  z-velocity      energy           k       omega     time/iter
   518  2.7717e-04  3.1210e-04  2.0855e-04  6.9306e+00  2.7567e-04  2.6354e-04  5.1612e-05  0:02:29 1482
   519  2.6797e-04  2.9956e-04  2.0887e-04  7.0335e+00  2.6642e-04  2.6105e-04  5.0533e-05  0:06:55 1481
   520  2.5747e-04  2.8651e-04  2.1066e-04  7.1261e+00  2.5588e-04  2.5918e-04  4.9795e-05  0:05:32 1480
   521  2.4572e-04  2.7335e-04  2.1382e-04  7.2060e+00  2.4412e-04  2.5858e-04  4.9211e-05  0:04:25 1479
   522  2.3279e-04  2.6057e-04  2.1820e-04  7.2718e+00  2.3120e-04  2.5654e-04  4.8677e-05  0:03:32 1478
   523  2.1877e-04  2.4876e-04  2.2362e-04  7.3234e+00  2.1720e-04  2.5408e-04  4.8198e-05  0:02:50 1477
   524  2.0377e-04  2.3862e-04  2.2986e-04  7.3614e+00  2.0225e-04  2.5304e-04  4.7676e-05  0:02:16 1476
   525  1.8795e-04  2.3086e-04  2.3667e-04  7.3867e+00  1.8650e-04  2.5098e-04  4.6867e-05  0:06:43 1475
   526  1.7150e-04  2.2618e-04  2.4381e-04  7.4000e+00  1.7016e-04  2.4774e-04  4.6006e-05  0:05:22 1474
   527  1.5472e-04  2.2513e-04  2.5104e-04  7.4003e+00  1.5350e-04  2.4600e-04  4.5122e-05  0:04:18 1473
   528  1.3795e-04  2.2801e-04  2.5812e-04  7.3845e+00  1.3690e-04  2.4462e-04  4.4470e-05  0:03:26 1472

  iter  continuity  x-velocity  y-velocity  z-velocity      energy           k       omega     time/iter
   529  1.2169e-04  2.3478e-04  2.6486e-04  7.3487e+00  1.2084e-04  2.4346e-04  4.3748e-05  0:02:45 1471
   530  1.0663e-04  2.4512e-04  2.7107e-04  7.2892e+00  1.0603e-04  2.4335e-04  4.2894e-05  0:02:12 1470
   531  9.3732e-05  2.5849e-04  2.7659e-04  7.2035e+00  9.3431e-05  2.4423e-04  4.2129e-05  0:01:45 1469
   532  8.4239e-05  2.7419e-04  2.8128e-04  7.0900e+00  8.4269e-05  2.4440e-04  4.1264e-05  0:06:18 1468
   533  7.9469e-05  2.9155e-04  2.8503e-04  6.9493e+00  7.9811e-05  2.4439e-04  4.0532e-05  0:05:02 1467
   534  8.0170e-05  3.0987e-04  2.8774e-04  6.7845e+00  8.0733e-05  2.4422e-04  3.9807e-05  0:04:01 1466
   535  8.5953e-05  3.2857e-04  2.8938e-04  6.6005e+00  8.6605e-05  2.4361e-04  3.9265e-05  0:03:13 1465
   536  9.5538e-05  3.4711e-04  2.8988e-04  6.4028e+00  9.6160e-05  2.4380e-04  3.9032e-05  0:02:34 1464
   537  1.0749e-04  3.6504e-04  2.8926e-04  6.1976e+00  1.0801e-04  2.4455e-04  3.8925e-05  0:06:56 1463
   538  1.2065e-04  3.8196e-04  2.8752e-04  5.9907e+00  1.2101e-04  2.4470e-04  3.8961e-05  0:05:33 1462
   539  1.3419e-04  3.9755e-04  2.8470e-04  5.7869e+00  1.3438e-04  2.4612e-04  3.9009e-05  0:04:26 1461

  iter  continuity  x-velocity  y-velocity  z-velocity      energy           k       omega     time/iter
   540  1.4754e-04  4.1153e-04  2.8087e-04  5.5898e+00  1.4756e-04  2.4786e-04  3.9003e-05  0:03:33 1460
   541  1.6032e-04  4.2366e-04  2.7613e-04  5.4017e+00  1.6014e-04  2.5020e-04  3.9083e-05  0:02:50 1459
   542  1.7222e-04  4.3377e-04  2.7059e-04  5.2239e+00  1.7186e-04  2.5182e-04  3.9197e-05  0:02:16 1458
   543  1.8304e-04  4.4171e-04  2.6440e-04  5.0573e+00  1.8251e-04  2.5363e-04  3.9252e-05  0:06:40 1457
   544  1.9262e-04  4.4739e-04  2.5773e-04  4.9024e+00  1.9193e-04  2.5616e-04  3.9352e-05  0:05:20 1456
   545  2.0085e-04  4.5074e-04  2.5076e-04  4.7645e+00  2.0000e-04  2.5839e-04  3.9545e-05  0:04:16 1455
   546  2.0764e-04  4.5177e-04  2.4380e-04  4.6399e+00  2.0664e-04  2.6041e-04  3.9763e-05  0:03:24 1454
   547  2.1296e-04  4.5052e-04  2.3746e-04  4.5276e+00  2.1183e-04  2.6166e-04  4.0057e-05  0:02:43 1453
   548  2.1673e-04  4.4693e-04  2.3138e-04  4.4382e+00  2.1549e-04  2.6358e-04  4.0215e-05  0:07:01 1452
   549  2.1896e-04  4.4116e-04  2.2591e-04  4.3687e+00  2.1761e-04  2.6561e-04  4.0286e-05  0:05:37 1451
   550  2.1963e-04  4.3328e-04  2.2100e-04  4.3037e+00  2.1820e-04  2.6736e-04  4.0379e-05  0:04:29 1450

  iter  continuity  x-velocity  y-velocity  z-velocity      energy           k       omega     time/iter
   551  2.1878e-04  4.2346e-04  2.1684e-04  4.2431e+00  2.1729e-04  2.6886e-04  4.0562e-05  0:03:35 1449
   552  2.1648e-04  4.1190e-04  2.1367e-04  4.1878e+00  2.1494e-04  2.7070e-04  4.0833e-05  0:02:52 1448
   553  2.1279e-04  3.9880e-04  2.1160e-04  4.1371e+00  2.1123e-04  2.7249e-04  4.1323e-05  0:02:17 1447
   554  2.0782e-04  3.8444e-04  2.1067e-04  4.0896e+00  2.0627e-04  2.7394e-04  4.1814e-05  0:06:39 1446
   555  2.0169e-04  3.6913e-04  2.1079e-04  4.0435e+00  2.0015e-04  2.7536e-04  4.2344e-05  0:05:19 1445
   556  1.9453e-04  3.5326e-04  2.1185e-04  3.9968e+00  1.9304e-04  2.7686e-04  4.2929e-05  0:04:15 1444
   557  1.8653e-04  3.3710e-04  2.1370e-04  3.9492e+00  1.8510e-04  2.7866e-04  4.3395e-05  0:03:24 1443
   558  1.7788e-04  3.2105e-04  2.1613e-04  3.9033e+00  1.7655e-04  2.8054e-04  4.3894e-05  0:02:43 1442
   559  1.6883e-04  3.0548e-04  2.1892e-04  3.8528e+00  1.6762e-04  2.8197e-04  4.4301e-05  0:02:10 1441
   560  1.5968e-04  2.9083e-04  2.2186e-04  3.7985e+00  1.5860e-04  2.8309e-04  4.4588e-05  0:01:44 1440
   561  1.5073e-04  2.7752e-04  2.2474e-04  3.7416e+00  1.4981e-04  2.8479e-04  4.5008e-05  0:06:11 1439

  iter  continuity  x-velocity  y-velocity  z-velocity      energy           k       omega     time/iter
   562  1.4238e-04  2.6597e-04  2.2736e-04  3.6826e+00  1.4163e-04  2.8625e-04  4.5357e-05  0:04:57 1438
   563  1.3501e-04  2.5651e-04  2.2956e-04  3.6216e+00  1.3445e-04  2.8728e-04  4.5760e-05  0:03:57 1437
   564  1.2905e-04  2.4940e-04  2.3121e-04  3.5591e+00  1.2867e-04  2.8786e-04  4.6014e-05  0:03:10 1436
   565  1.2490e-04  2.4477e-04  2.3218e-04  3.4958e+00  1.2469e-04  2.8759e-04  4.6172e-05  0:02:32 1435
   566  1.2285e-04  2.4258e-04  2.3241e-04  3.4320e+00  1.2278e-04  2.8775e-04  4.6464e-05  0:02:01 1434
   567  1.2305e-04  2.4265e-04  2.3183e-04  3.3695e+00  1.2308e-04  2.8670e-04  4.6710e-05  0:06:23 1433
   568  1.2548e-04  2.4466e-04  2.3042e-04  3.3101e+00  1.2555e-04  2.8657e-04  4.6971e-05  0:05:07 1432
   569  1.2991e-04  2.4822e-04  2.2818e-04  3.2554e+00  1.2997e-04  2.8863e-04  4.7132e-05  0:04:05 1431
   570  1.3601e-04  2.5289e-04  2.2515e-04  3.2073e+00  1.3601e-04  2.9091e-04  4.6746e-05  0:03:16 1430
   571  1.4337e-04  2.5822e-04  2.2138e-04  3.1677e+00  1.4328e-04  2.9249e-04  4.6262e-05  0:02:37 1429
   572  1.5160e-04  2.6380e-04  2.1695e-04  3.1383e+00  1.5138e-04  2.9377e-04  4.5830e-05  0:06:51 1428

  iter  continuity  x-velocity  y-velocity  z-velocity      energy           k       omega     time/iter
   573  1.6033e-04  2.6926e-04  2.1196e-04  3.1197e+00  1.5997e-04  2.9423e-04  4.5717e-05  0:05:28 1427
   574  1.6925e-04  2.7428e-04  2.0655e-04  3.1122e+00  1.6872e-04  2.9401e-04  4.5511e-05  0:04:23 1426
   575  1.7807e-04  2.7861e-04  2.0087e-04  3.1159e+00  1.7737e-04  2.9397e-04  4.5004e-05  0:03:30 1425
   576  1.8657e-04  2.8203e-04  1.9508e-04  3.1311e+00  1.8570e-04  2.9278e-04  4.4475e-05  0:02:48 1424
   577  1.9456e-04  2.8438e-04  1.8938e-04  3.1578e+00  1.9352e-04  2.9159e-04  4.3782e-05  0:02:14 1423
   578  2.0189e-04  2.8557e-04  1.8399e-04  3.1959e+00  2.0068e-04  2.9110e-04  4.2907e-05  0:01:47 1422
   579  2.0843e-04  2.8553e-04  1.7911e-04  3.2446e+00  2.0705e-04  2.9004e-04  4.1945e-05  0:06:10 1421
   580  2.1407e-04  2.8422e-04  1.7498e-04  3.3030e+00  2.1253e-04  2.8952e-04  4.0940e-05  0:04:56 1420
   581  2.1874e-04  2.8167e-04  1.7179e-04  3.3709e+00  2.1705e-04  2.8803e-04  3.9825e-05  0:03:56 1419
   582  2.2237e-04  2.7792e-04  1.6973e-04  3.4471e+00  2.2053e-04  2.8653e-04  3.8720e-05  0:03:09 1418
   583  2.2490e-04  2.7303e-04  1.6893e-04  3.5308e+00  2.2294e-04  2.8482e-04  3.7844e-05  0:02:31 1417

  iter  continuity  x-velocity  y-velocity  z-velocity      energy           k       omega     time/iter
   584  2.2632e-04  2.6710e-04  1.6946e-04  3.6224e+00  2.2424e-04  2.8234e-04  3.6903e-05  0:02:01 1416
   585  2.2661e-04  2.6027e-04  1.7134e-04  3.7223e+00  2.2442e-04  2.7994e-04  3.5991e-05  0:01:37 1415
   586  2.2577e-04  2.5267e-04  1.7449e-04  3.8285e+00  2.2348e-04  2.7897e-04  3.5068e-05  0:06:00 1414
   587  2.2381e-04  2.4448e-04  1.7879e-04  3.9398e+00  2.2144e-04  2.7750e-04  3.3990e-05  0:04:48 1413
   588  2.2075e-04  2.3589e-04  1.8392e-04  4.0548e+00  2.1831e-04  2.7646e-04  3.3006e-05  0:03:50 1412
   589  2.1665e-04  2.2711e-04  1.8985e-04  4.1712e+00  2.1416e-04  2.7615e-04  3.2010e-05  0:03:04 1411
   590  2.1157e-04  2.1837e-04  1.9647e-04  4.2881e+00  2.0903e-04  2.7591e-04  3.0736e-05  0:02:27 1410
   591  2.0556e-04  2.0999e-04  2.0340e-04  4.4043e+00  2.0299e-04  2.7308e-04  2.9344e-05  0:01:58 1409
   592  1.9869e-04  2.0223e-04  2.1035e-04  4.5148e+00  1.9611e-04  2.6783e-04  2.8246e-05  0:06:16 1408
   593  1.9110e-04  1.9529e-04  2.1750e-04  4.6171e+00  1.8851e-04  2.6171e-04  2.6978e-05  0:05:00 1407
   594  1.8286e-04  1.8951e-04  2.2455e-04  4.7120e+00  1.8029e-04  2.5509e-04  2.6080e-05  0:04:00 1406

  iter  continuity  x-velocity  y-velocity  z-velocity      energy           k       omega     time/iter
   595  1.7409e-04  1.8513e-04  2.3131e-04  4.7975e+00  1.7155e-04  2.5113e-04  2.5612e-05  0:03:12 1405
   596  1.6490e-04  1.8232e-04  2.3764e-04  4.8713e+00  1.6240e-04  2.4657e-04  2.5157e-05  0:02:33 1404
   597  1.5544e-04  1.8117e-04  2.4341e-04  4.9316e+00  1.5300e-04  2.4269e-04  2.4757e-05  0:02:03 1403
   598  1.4585e-04  1.8168e-04  2.4853e-04  4.9773e+00  1.4349e-04  2.3897e-04  2.4432e-05  0:06:18 1402
   599  1.3630e-04  1.8374e-04  2.5291e-04  5.0081e+00  1.3403e-04  2.3468e-04  2.4166e-05  0:05:03 1401
   600  1.2696e-04  1.8719e-04  2.5648e-04  5.0247e+00  1.2480e-04  2.2997e-04  2.3927e-05  0:04:02 1400
   601  1.1802e-04  1.9180e-04  2.5921e-04  5.0288e+00  1.1600e-04  2.2535e-04  2.3733e-05  0:03:13 1399
   602  1.0969e-04  1.9731e-04  2.6104e-04  5.0219e+00  1.0783e-04  2.2060e-04  2.3542e-05  0:02:35 1398
   603  1.0218e-04  2.0343e-04  2.6196e-04  5.0068e+00  1.0051e-04  2.1488e-04  2.3448e-05  0:06:43 1397
   604  9.5707e-05  2.0991e-04  2.6194e-04  4.9858e+00  9.4244e-05  2.0877e-04  2.3382e-05  0:05:22 1396
   605  9.0448e-05  2.1648e-04  2.6099e-04  4.9610e+00  8.9213e-05  2.0268e-04  2.3353e-05  0:04:18 1395

  iter  continuity  x-velocity  y-velocity  z-velocity      energy           k       omega     time/iter
   606  8.6539e-05  2.2292e-04  2.5910e-04  4.9348e+00  8.5545e-05  1.9631e-04  2.3312e-05  0:03:26 1394
   607  8.4033e-05  2.2902e-04  2.5629e-04  4.9092e+00  8.3279e-05  1.8989e-04  2.3226e-05  0:02:45 1393
   608  8.2878e-05  2.3459e-04  2.5258e-04  4.8856e+00  8.2349e-05  1.8316e-04  2.3097e-05  0:02:12 1392
   609  8.2917e-05  2.3949e-04  2.4799e-04  4.8645e+00  8.2586e-05  1.7676e-04  2.2959e-05  0:06:23 1391
   610  8.3915e-05  2.4360e-04  2.4256e-04  4.8460e+00  8.3748e-05  1.7038e-04  2.2773e-05  0:05:06 1390
   611  8.5596e-05  2.4682e-04  2.3633e-04  4.8296e+00  8.5554e-05  1.6373e-04  2.2586e-05  0:04:05 1389
   612  8.7682e-05  2.4907e-04  2.2936e-04  4.8149e+00  8.7728e-05  1.5753e-04  2.2417e-05  0:03:16 1388
   613  8.9918e-05  2.5030e-04  2.2169e-04  4.8014e+00  9.0021e-05  1.5107e-04  2.2208e-05  0:02:37 1387
   614  9.2083e-05  2.5048e-04  2.1339e-04  4.7886e+00  9.2216e-05  1.4498e-04  2.1987e-05  0:06:42 1386
   615  9.3998e-05  2.4959e-04  2.0454e-04  4.7756e+00  9.4140e-05  1.3956e-04  2.1750e-05  0:05:22 1385
   616  9.5520e-05  2.4762e-04  1.9521e-04  4.7621e+00  9.5656e-05  1.3510e-04  2.1482e-05  0:04:17 1384

  iter  continuity  x-velocity  y-velocity  z-velocity      energy           k       omega     time/iter
   617  9.6553e-05  2.4466e-04  1.8555e-04  4.7477e+00  9.6671e-05  1.3139e-04  2.1226e-05  0:03:26 1383
   618  9.7012e-05  2.4063e-04  1.7561e-04  4.7343e+00  9.7105e-05  1.2795e-04  2.0971e-05  0:02:44 1382
   619  9.6837e-05  2.3559e-04  1.6541e-04  4.7221e+00  9.6899e-05  1.2469e-04  2.0670e-05  0:06:48 1381
   620  9.6004e-05  2.2966e-04  1.5505e-04  4.7089e+00  9.6032e-05  1.2182e-04  2.0329e-05  0:05:26 1380
   621  9.4513e-05  2.2289e-04  1.4468e-04  4.6929e+00  9.4506e-05  1.1929e-04  1.9952e-05  0:04:20 1379
   622  9.2389e-05  2.1539e-04  1.3449e-04  4.6719e+00  9.2348e-05  1.1704e-04  1.9564e-05  0:03:28 1378
   623  8.9658e-05  2.0720e-04  1.2451e-04  4.6410e+00  8.9586e-05  1.1467e-04  1.9158e-05  0:07:22 1377
   624  8.6372e-05  1.9849e-04  1.1484e-04  4.6016e+00  8.6271e-05  1.1256e-04  1.8788e-05  0:05:53 1376
[...]
  1838  1.1926e-08  5.8276e-09  3.4171e-09  2.3016e-04  9.7730e-09  9.4508e-09  1.2507e-09  0:00:08  162
  1839  1.2000e-08  5.6562e-09  3.4044e-09  2.2782e-04  9.8782e-09  9.3479e-09  1.2505e-09  0:00:06  161
  1840  1.2097e-08  5.5276e-09  3.3951e-09  2.2518e-04  1.0006e-08  9.2582e-09  1.2517e-09  0:00:37  160
  1841  1.2213e-08  5.4414e-09  3.3853e-09  2.2225e-04  1.0155e-08  9.1550e-09  1.2511e-09  0:00:29  159
  1842  1.2346e-08  5.3950e-09  3.3721e-09  2.1905e-04  1.0322e-08  9.0375e-09  1.2480e-09  0:00:23  158
  1843  1.2495e-08  5.3840e-09  3.3534e-09  2.1560e-04  1.0504e-08  8.9119e-09  1.2453e-09  0:00:19  157
  1844  1.2656e-08  5.4022e-09  3.3278e-09  2.1191e-04  1.0697e-08  8.7801e-09  1.2442e-09  0:00:15  156
  1845  1.2827e-08  5.4427e-09  3.2949e-09  2.0801e-04  1.0900e-08  8.6394e-09  1.2417e-09  0:00:12  155
  1846  1.3004e-08  5.4983e-09  3.2552e-09  2.0391e-04  1.1107e-08  8.5054e-09  1.2389e-09  0:00:09  154
  1847  1.3184e-08  5.5619e-09  3.2099e-09  1.9964e-04  1.1316e-08  8.3808e-09  1.2351e-09  0:00:07  153
  1848  1.3365e-08  5.6272e-09  3.1611e-09  1.9523e-04  1.1524e-08  8.2628e-09  1.2298e-09  0:00:06  152

  iter  continuity  x-velocity  y-velocity  z-velocity      energy           k       omega     time/iter
  1849  1.3544e-08  5.6882e-09  3.1113e-09  1.9069e-04  1.1727e-08  8.1487e-09  1.2256e-09  0:00:35  151
  1850  1.3717e-08  5.7404e-09  3.0641e-09  1.8605e-04  1.1923e-08  8.0334e-09  1.2197e-09  0:00:28  150
  1851  1.3883e-08  5.7799e-09  3.0231e-09  1.8134e-04  1.2109e-08  7.9302e-09  1.2124e-09  0:00:22  149
  1852  1.4039e-08  5.8038e-09  2.9926e-09  1.7660e-04  1.2283e-08  7.8573e-09  1.2028e-09  0:00:18  148
  1853  1.4183e-08  5.8102e-09  2.9765e-09  1.7183e-04  1.2443e-08  7.8163e-09  1.1938e-09  0:00:14  147
  1854  1.4313e-08  5.7981e-09  2.9786e-09  1.6709e-04  1.2586e-08  7.7862e-09  1.1838e-09  0:00:11  146
  1855  1.4427e-08  5.7673e-09  3.0019e-09  1.6239e-04  1.2712e-08  7.7640e-09  1.1738e-09  0:00:09  145
  1856  1.4525e-08  5.7183e-09  3.0483e-09  1.5776e-04  1.2820e-08  7.7569e-09  1.1631e-09  0:00:07  144
  1857  1.4605e-08  5.6526e-09  3.1186e-09  1.5324e-04  1.2907e-08  7.7703e-09  1.1510e-09  0:00:06  143
  1858  1.4666e-08  5.5721e-09  3.2120e-09  1.4885e-04  1.2975e-08  7.7805e-09  1.1369e-09  0:00:33  142
  1859  1.4709e-08  5.4797e-09  3.3267e-09  1.4462e-04  1.3022e-08  7.7832e-09  1.1230e-09  0:00:26  141

  iter  continuity  x-velocity  y-velocity  z-velocity      energy           k       omega     time/iter
  1860  1.4732e-08  5.3787e-09  3.4600e-09  1.4058e-04  1.3048e-08  7.7896e-09  1.1106e-09  0:00:21  140
  1861  1.4736e-08  5.2730e-09  3.6084e-09  1.3674e-04  1.3054e-08  7.8178e-09  1.1006e-09  0:00:16  139
  1862  1.4721e-08  5.1671e-09  3.7683e-09  1.3314e-04  1.3039e-08  7.8440e-09  1.0911e-09  0:00:13  138
  1863  1.4688e-08  5.0657e-09  3.9358e-09  1.2979e-04  1.3006e-08  7.8668e-09  1.0806e-09  0:00:10  137
  1864  1.4638e-08  4.9736e-09  4.1071e-09  1.2672e-04  1.2953e-08  7.8873e-09  1.0688e-09  0:00:08  136
  1865  1.4570e-08  4.8958e-09  4.2786e-09  1.2393e-04  1.2882e-08  7.9062e-09  1.0577e-09  0:00:34  135
  1866  1.4487e-08  4.8366e-09  4.4470e-09  1.2144e-04  1.2795e-08  7.9226e-09  1.0463e-09  0:00:27  134
  1867  1.4389e-08  4.7997e-09  4.6093e-09  1.1925e-04  1.2693e-08  7.9370e-09  1.0364e-09  0:00:21  133
  1868  1.4277e-08  4.7879e-09  4.7627e-09  1.1737e-04  1.2576e-08  7.9649e-09  1.0269e-09  0:00:17  132
  1869  1.4154e-08  4.8028e-09  4.9048e-09  1.1580e-04  1.2447e-08  7.9827e-09  1.0175e-09  0:00:13  131
  1870  1.4019e-08  4.8443e-09  5.0334e-09  1.1453e-04  1.2307e-08  7.9840e-09  1.0083e-09  0:00:11  130

  iter  continuity  x-velocity  y-velocity  z-velocity      energy           k       omega     time/iter
  1871  1.3875e-08  4.9111e-09  5.1469e-09  1.1355e-04  1.2156e-08  7.9715e-09  9.9993e-10  0:00:08  129
  1872  1.3723e-08  5.0008e-09  5.2437e-09  1.1285e-04  1.1998e-08  7.9575e-09  9.9290e-10  0:00:07  128
  1873  1.3564e-08  5.1097e-09  5.3225e-09  1.1241e-04  1.1833e-08  7.9354e-09  9.8626e-10  0:00:05  127
  1874  1.3400e-08  5.2338e-09  5.3823e-09  1.1220e-04  1.1663e-08  7.9031e-09  9.8033e-10  0:00:29  126
  1875  1.3231e-08  5.3685e-09  5.4226e-09  1.1222e-04  1.1489e-08  7.8775e-09  9.7539e-10  0:00:23  125
  1876  1.3060e-08  5.5090e-09  5.4429e-09  1.1243e-04  1.1312e-08  7.8603e-09  9.7223e-10  0:00:19  124
  1877  1.2887e-08  5.6508e-09  5.4430e-09  1.1282e-04  1.1134e-08  7.8314e-09  9.6954e-10  0:00:15  123
  1878  1.2714e-08  5.7896e-09  5.4229e-09  1.1335e-04  1.0955e-08  7.7847e-09  9.6848e-10  0:00:12  122
  1879  1.2540e-08  5.9215e-09  5.3829e-09  1.1401e-04  1.0777e-08  7.7246e-09  9.6848e-10  0:00:09  121
  1880  1.2368e-08  6.0429e-09  5.3235e-09  1.1476e-04  1.0601e-08  7.6576e-09  9.6841e-10  0:00:07  120
  1881  1.2197e-08  6.1507e-09  5.2453e-09  1.1559e-04  1.0428e-08  7.5742e-09  9.6761e-10  0:00:06  119

  iter  continuity  x-velocity  y-velocity  z-velocity      energy           k       omega     time/iter
  1882  1.2029e-08  6.2424e-09  5.1493e-09  1.1647e-04  1.0257e-08  7.4775e-09  9.6811e-10  0:00:05  118
  1883  1.1865e-08  6.3157e-09  5.0365e-09  1.1739e-04  1.0090e-08  7.3695e-09  9.7040e-10  0:00:27  117
  1884  1.1703e-08  6.3689e-09  4.9081e-09  1.1831e-04  9.9277e-09  7.2485e-09  9.7188e-10  0:00:21  116
  1885  1.1546e-08  6.4009e-09  4.7654e-09  1.1923e-04  9.7698e-09  7.1240e-09  9.7295e-10  0:00:17  115
  1886  1.1393e-08  6.4107e-09  4.6099e-09  1.2012e-04  9.6171e-09  7.0034e-09  9.7405e-10  0:00:14  114
  1887  1.1245e-08  6.3979e-09  4.4433e-09  1.2098e-04  9.4700e-09  6.9054e-09  9.7366e-10  0:00:11  113
  1888  1.1103e-08  6.3625e-09  4.2672e-09  1.2177e-04  9.3287e-09  6.8233e-09  9.7261e-10  0:00:08  112
  1889  1.0966e-08  6.3047e-09  4.0834e-09  1.2249e-04  9.1939e-09  6.7806e-09  9.7039e-10  0:00:07  111
  1890  1.0835e-08  6.2254e-09  3.8937e-09  1.2314e-04  9.0659e-09  6.7374e-09  9.6857e-10  0:00:05  110
  1891  1.0711e-08  6.1256e-09  3.7002e-09  1.2368e-04  8.9452e-09  6.6921e-09  9.6636e-10  0:00:04  109
  1892  1.0594e-08  6.0066e-09  3.5046e-09  1.2412e-04  8.8323e-09  6.6470e-09  9.6340e-10  0:00:25  108

  iter  continuity  x-velocity  y-velocity  z-velocity      energy           k       omega     time/iter
  1893  1.0485e-08  5.8702e-09  3.3090e-09  1.2445e-04  8.7279e-09  6.6084e-09  9.5943e-10  0:00:20  107
  1894  1.0384e-08  5.7184e-09  3.1154e-09  1.2465e-04  8.6326e-09  6.5741e-09  9.5477e-10  0:00:16  106
  1895  1.0292e-08  5.5535e-09  2.9257e-09  1.2472e-04  8.5471e-09  6.5295e-09  9.4891e-10  0:00:12  105
  1896  1.0209e-08  5.3781e-09  2.7417e-09  1.2465e-04  8.4720e-09  6.4823e-09  9.4197e-10  0:00:10  104
  1897  1.0137e-08  5.1950e-09  2.5654e-09  1.2444e-04  8.4080e-09  6.4457e-09  9.3576e-10  0:00:08  103
  1898  1.0075e-08  5.0074e-09  2.3986e-09  1.2408e-04  8.3558e-09  6.4092e-09  9.2966e-10  0:00:06  102
  1899  1.0025e-08  4.8186e-09  2.2427e-09  1.2358e-04  8.3160e-09  6.3747e-09  9.2338e-10  0:00:05  101
  1900  9.9859e-09  4.6320e-09  2.0992e-09  1.2292e-04  8.2890e-09  6.3445e-09  9.1807e-10  0:00:04  100
  1901  9.9591e-09  4.4511e-09  1.9694e-09  1.2210e-04  8.2752e-09  6.3107e-09  9.1492e-10  0:00:23   99
  1902  9.9445e-09  4.2795e-09  1.8540e-09  1.2114e-04  8.2747e-09  6.2779e-09  9.1221e-10  0:00:18   98
  1903  9.9421e-09  4.1206e-09  1.7536e-09  1.2002e-04  8.2876e-09  6.2357e-09  9.1071e-10  0:00:14   97

  iter  continuity  x-velocity  y-velocity  z-velocity      energy           k       omega     time/iter
  1904  9.9519e-09  3.9775e-09  1.6683e-09  1.1876e-04  8.3135e-09  6.1924e-09  9.0977e-10  0:00:11   96
  1905  9.9734e-09  3.8529e-09  1.5979e-09  1.1735e-04  8.3521e-09  6.1537e-09  9.0842e-10  0:00:09   95
  1906  1.0006e-08  3.7488e-09  1.5416e-09  1.1580e-04  8.4028e-09  6.1150e-09  9.0632e-10  0:00:07   94
  1907  1.0050e-08  3.6664e-09  1.4987e-09  1.1411e-04  8.4645e-09  6.0758e-09  9.0342e-10  0:00:06   93
  1908  1.0103e-08  3.6059e-09  1.4679e-09  1.1230e-04  8.5363e-09  6.0313e-09  8.9991e-10  0:00:04   92
  1909  1.0164e-08  3.5664e-09  1.4484e-09  1.1037e-04  8.6169e-09  5.9865e-09  8.9650e-10  0:00:04   91
  1910  1.0233e-08  3.5463e-09  1.4391e-09  1.0832e-04  8.7049e-09  5.9475e-09  8.9199e-10  0:00:21   90
  1911  1.0309e-08  3.5430e-09  1.4395e-09  1.0618e-04  8.7988e-09  5.9239e-09  8.8630e-10  0:00:16   89
  1912  1.0389e-08  3.5536e-09  1.4491e-09  1.0394e-04  8.8972e-09  5.8961e-09  8.8180e-10  0:00:13   88
  1913  1.0472e-08  3.5745e-09  1.4680e-09  1.0162e-04  8.9983e-09  5.8601e-09  8.7686e-10  0:00:10   87
  1914  1.0558e-08  3.6025e-09  1.4962e-09  9.9232e-05  9.1005e-09  5.8184e-09  8.7141e-10  0:00:08   86

  iter  continuity  x-velocity  y-velocity  z-velocity      energy           k       omega     time/iter
  1915  1.0643e-08  3.6343e-09  1.5341e-09  9.6787e-05  9.2023e-09  5.7810e-09  8.6576e-10  0:00:06   85
  1916  1.0728e-08  3.6668e-09  1.5821e-09  9.4298e-05  9.3020e-09  5.7620e-09  8.6041e-10  0:00:05   84
  1917  1.0810e-08  3.6975e-09  1.6404e-09  9.1777e-05  9.3983e-09  5.7594e-09  8.5470e-10  0:00:04   83
  1918  1.0888e-08  3.7243e-09  1.7094e-09  8.9240e-05  9.4897e-09  5.7582e-09  8.4902e-10  0:00:03   82
  1919  1.0961e-08  3.7454e-09  1.7888e-09  8.6699e-05  9.5750e-09  5.7679e-09  8.4221e-10  0:00:19   81
  1920  1.1028e-08  3.7597e-09  1.8783e-09  8.4170e-05  9.6529e-09  5.7945e-09  8.3483e-10  0:00:15   80
  1921  1.1088e-08  3.7665e-09  1.9773e-09  8.1667e-05  9.7225e-09  5.8187e-09  8.2615e-10  0:00:12   79
  1922  1.1139e-08  3.7656e-09  2.0850e-09  7.9203e-05  9.7829e-09  5.8390e-09  8.1737e-10  0:00:09   78
  1923  1.1182e-08  3.7570e-09  2.2002e-09  7.6793e-05  9.8333e-09  5.8568e-09  8.0827e-10  0:00:07   77
  1924  1.1215e-08  3.7415e-09  2.3218e-09  7.4451e-05  9.8731e-09  5.8724e-09  7.9908e-10  0:00:06   76
  1925  1.1238e-08  3.7200e-09  2.4484e-09  7.2191e-05  9.9019e-09  5.8920e-09  7.8962e-10  0:00:05   75

  iter  continuity  x-velocity  y-velocity  z-velocity      energy           k       omega     time/iter
  1926  1.1251e-08  3.6938e-09  2.5786e-09  7.0025e-05  9.9194e-09  5.9157e-09  7.8021e-10  0:00:04   74
  1927  1.1253e-08  3.6644e-09  2.7108e-09  6.7967e-05  9.9253e-09  5.9352e-09  7.7194e-10  0:00:03   73
  1928  1.1244e-08  3.6337e-09  2.8436e-09  6.6029e-05  9.9198e-09  5.9523e-09  7.6341e-10  0:00:02   72
  1929  1.1225e-08  3.6037e-09  2.9755e-09  6.4222e-05  9.9027e-09  5.9691e-09  7.5507e-10  0:00:16   71
  1930  1.1195e-08  3.5765e-09  3.1052e-09  6.2557e-05  9.8744e-09  5.9889e-09  7.4713e-10  0:00:13   70
  1931  1.1155e-08  3.5540e-09  3.2311e-09  6.1043e-05  9.8352e-09  6.0055e-09  7.3938e-10  0:00:10   69
  1932  1.1105e-08  3.5383e-09  3.3520e-09  5.9687e-05  9.7855e-09  6.0299e-09  7.3252e-10  0:00:08   68
  1933  1.1045e-08  3.5310e-09  3.4666e-09  5.8495e-05  9.7258e-09  6.0569e-09  7.2580e-10  0:00:06   67
  1934  1.0977e-08  3.5335e-09  3.5739e-09  5.7473e-05  9.6567e-09  6.0766e-09  7.1975e-10  0:00:05   66
  1935  1.0900e-08  3.5468e-09  3.6727e-09  5.6622e-05  9.5788e-09  6.0898e-09  7.1459e-10  0:00:04   65
  1936  1.0816e-08  3.5712e-09  3.7620e-09  5.5943e-05  9.4929e-09  6.1014e-09  7.0960e-10  0:00:03   64

  iter  continuity  x-velocity  y-velocity  z-velocity      energy           k       omega     time/iter
  1937  1.0724e-08  3.6067e-09  3.8411e-09  5.5435e-05  9.3998e-09  6.1100e-09  7.0485e-10  0:00:02   63
  1938  1.0627e-08  3.6526e-09  3.9091e-09  5.5095e-05  9.3001e-09  6.1183e-09  7.0046e-10  0:00:02   62
  1939  1.0523e-08  3.7080e-09  3.9655e-09  5.4918e-05  9.1947e-09  6.1197e-09  6.9688e-10  0:00:14   61
  1940  1.0415e-08  3.7713e-09  4.0097e-09  5.4898e-05  9.0845e-09  6.1120e-09  6.9367e-10  0:00:11   60
  1941  1.0303e-08  3.8409e-09  4.0415e-09  5.5026e-05  8.9702e-09  6.0938e-09  6.9108e-10  0:00:08   59
  1942  1.0188e-08  3.9147e-09  4.0604e-09  5.5295e-05  8.8525e-09  6.0718e-09  6.8950e-10  0:00:07   58
  1943  1.0070e-08  3.9907e-09  4.0663e-09  5.5693e-05  8.7324e-09  6.0549e-09  6.8835e-10  0:00:05   57
  1944  9.9502e-09  4.0669e-09  4.0593e-09  5.6211e-05  8.6104e-09  6.0354e-09  6.8730e-10  0:00:04   56
  1945  9.8291e-09  4.1412e-09  4.0394e-09  5.6836e-05  8.4874e-09  6.0088e-09  6.8657e-10  0:00:03   55
  1946  9.7073e-09  4.2117e-09  4.0069e-09  5.7559e-05  8.3639e-09  5.9748e-09  6.8699e-10  0:00:03   54
  1947  9.5855e-09  4.2767e-09  3.9619e-09  5.8368e-05  8.2406e-09  5.9330e-09  6.8743e-10  0:00:02   53

  iter  continuity  x-velocity  y-velocity  z-velocity      energy           k       omega     time/iter
  1948  9.4642e-09  4.3345e-09  3.9050e-09  5.9250e-05  8.1181e-09  5.8846e-09  6.8744e-10  0:00:02   52
  1949  9.3439e-09  4.3838e-09  3.8366e-09  6.0194e-05  7.9968e-09  5.8290e-09  6.8844e-10  0:00:11   51
  1950  9.2251e-09  4.4233e-09  3.7574e-09  6.1190e-05  7.8774e-09  5.7672e-09  6.8918e-10  0:00:09   50
  1951  9.1081e-09  4.4521e-09  3.6680e-09  6.2226e-05  7.7602e-09  5.7012e-09  6.8946e-10  0:00:07   49
  1952  8.9934e-09  4.4694e-09  3.5692e-09  6.3291e-05  7.6456e-09  5.6333e-09  6.8996e-10  0:00:06   48
  1953  8.8814e-09  4.4748e-09  3.4619e-09  6.4375e-05  7.5341e-09  5.5627e-09  6.8965e-10  0:00:04   47
  1954  8.7725e-09  4.4677e-09  3.3468e-09  6.5466e-05  7.4260e-09  5.4911e-09  6.8961e-10  0:00:03   46
  1955  8.6669e-09  4.4483e-09  3.2251e-09  6.6555e-05  7.3218e-09  5.4261e-09  6.8915e-10  0:00:03   45
  1956  8.5650e-09  4.4164e-09  3.0976e-09  6.7633e-05  7.2216e-09  5.3699e-09  6.8848e-10  0:00:02   44
  1957  8.4672e-09  4.3725e-09  2.9654e-09  6.8689e-05  7.1260e-09  5.3278e-09  6.8770e-10  0:00:02   43
  1958  8.3737e-09  4.3169e-09  2.8296e-09  6.9715e-05  7.0352e-09  5.2922e-09  6.8658e-10  0:00:10   42

  iter  continuity  x-velocity  y-velocity  z-velocity      energy           k       omega     time/iter
  1959  8.2850e-09  4.2504e-09  2.6912e-09  7.0701e-05  6.9496e-09  5.2554e-09  6.8470e-10  0:00:08   41
  1960  8.2012e-09  4.1738e-09  2.5512e-09  7.1641e-05  6.8695e-09  5.2161e-09  6.8201e-10  0:00:06   40
  1961  8.1229e-09  4.0881e-09  2.4109e-09  7.2525e-05  6.7954e-09  5.1726e-09  6.7854e-10  0:00:05   39
  1962  8.0502e-09  3.9944e-09  2.2711e-09  7.3347e-05  6.7274e-09  5.1301e-09  6.7422e-10  0:00:04   38
  1963  7.9835e-09  3.8940e-09  2.1330e-09  7.4100e-05  6.6661e-09  5.0905e-09  6.6916e-10  0:00:03   37
  1964  7.9231e-09  3.7883e-09  1.9976e-09  7.4779e-05  6.6116e-09  5.0481e-09  6.6363e-10  0:00:02   36
  1965  7.8692e-09  3.6788e-09  1.8659e-09  7.5377e-05  6.5644e-09  5.0030e-09  6.5832e-10  0:00:02   35
  1966  7.8221e-09  3.5671e-09  1.7388e-09  7.5889e-05  6.5245e-09  4.9631e-09  6.5286e-10  0:00:01   34
  1967  7.7819e-09  3.4549e-09  1.6174e-09  7.6313e-05  6.4922e-09  4.9288e-09  6.4741e-10  0:00:01   33
  1968  7.7488e-09  3.3438e-09  1.5025e-09  7.6644e-05  6.4676e-09  4.8904e-09  6.4238e-10  0:00:07   32
  1969  7.7227e-09  3.2355e-09  1.3949e-09  7.6879e-05  6.4508e-09  4.8491e-09  6.3869e-10  0:00:06   31

  iter  continuity  x-velocity  y-velocity  z-velocity      energy           k       omega     time/iter
  1970  7.7038e-09  3.1316e-09  1.2954e-09  7.7018e-05  6.4416e-09  4.8066e-09  6.3643e-10  0:00:04   30
  1971  7.6919e-09  3.0337e-09  1.2050e-09  7.7058e-05  6.4400e-09  4.7663e-09  6.3437e-10  0:00:03   29
  1972  7.6867e-09  2.9430e-09  1.1242e-09  7.6999e-05  6.4457e-09  4.7279e-09  6.3318e-10  0:00:03   28
  1973  7.6880e-09  2.8608e-09  1.0537e-09  7.6843e-05  6.4583e-09  4.6947e-09  6.3173e-10  0:00:02   27
  1974  7.6955e-09  2.7877e-09  9.9416e-10  7.6589e-05  6.4773e-09  4.6613e-09  6.2956e-10  0:00:02   26
  1975  7.7087e-09  2.7245e-09  9.4594e-10  7.6241e-05  6.5023e-09  4.6275e-09  6.2692e-10  0:00:01   25
  1976  7.7270e-09  2.6711e-09  9.0932e-10  7.5801e-05  6.5327e-09  4.5912e-09  6.2415e-10  0:00:06   24
  1977  7.7499e-09  2.6275e-09  8.8439e-10  7.5271e-05  6.5676e-09  4.5522e-09  6.2151e-10  0:00:04   23
  1978  7.7767e-09  2.5931e-09  8.7098e-10  7.4658e-05  6.6063e-09  4.5137e-09  6.1876e-10  0:00:03   22
  1979  7.8066e-09  2.5670e-09  8.6873e-10  7.3965e-05  6.6481e-09  4.4782e-09  6.1546e-10  0:00:03   21
  1980  7.8390e-09  2.5482e-09  8.7707e-10  7.3198e-05  6.6921e-09  4.4443e-09  6.1265e-10  0:00:02   20

  iter  continuity  x-velocity  y-velocity  z-velocity      energy           k       omega     time/iter
  1981  7.8730e-09  2.5353e-09  8.9532e-10  7.2363e-05  6.7374e-09  4.4106e-09  6.0970e-10  0:00:01   19
  1982  7.9079e-09  2.5271e-09  9.2270e-10  7.1466e-05  6.7832e-09  4.3785e-09  6.0658e-10  0:00:01   18
  1983  7.9429e-09  2.5222e-09  9.5843e-10  7.0517e-05  6.8286e-09  4.3513e-09  6.0337e-10  0:00:01   17
  1984  7.9772e-09  2.5194e-09  1.0018e-09  6.9520e-05  6.8728e-09  4.3345e-09  6.0037e-10  0:00:01   16
  1985  8.0101e-09  2.5176e-09  1.0519e-09  6.8487e-05  6.9150e-09  4.3260e-09  5.9685e-10  0:00:00   15
  1986  8.0409e-09  2.5157e-09  1.1082e-09  6.7423e-05  6.9546e-09  4.3243e-09  5.9331e-10  0:00:03   14
  1987  8.0690e-09  2.5130e-09  1.1699e-09  6.6340e-05  6.9907e-09  4.3243e-09  5.8956e-10  0:00:02   13
  1988  8.0937e-09  2.5091e-09  1.2364e-09  6.5245e-05  7.0229e-09  4.3271e-09  5.8520e-10  0:00:02   12
  1989  8.1145e-09  2.5034e-09  1.3069e-09  6.4148e-05  7.0505e-09  4.3303e-09  5.7993e-10  0:00:01   11
  1990  8.1309e-09  2.4960e-09  1.3808e-09  6.3059e-05  7.0732e-09  4.3323e-09  5.7491e-10  0:00:01   10
  1991  8.1426e-09  2.4869e-09  1.4575e-09  6.1987e-05  7.0905e-09  4.3353e-09  5.6975e-10  0:00:01    9

  iter  continuity  x-velocity  y-velocity  z-velocity      energy           k       omega     time/iter
  1992  8.1492e-09  2.4765e-09  1.5361e-09  6.0942e-05  7.1020e-09  4.3379e-09  5.6495e-10  0:00:00    8
  1993  8.1504e-09  2.4652e-09  1.6160e-09  5.9932e-05  7.1076e-09  4.3432e-09  5.5976e-10  0:00:00    7
  1994  8.1462e-09  2.4537e-09  1.6964e-09  5.8966e-05  7.1071e-09  4.3453e-09  5.5527e-10  0:00:00    6
  1995  8.1363e-09  2.4426e-09  1.7766e-09  5.8053e-05  7.1005e-09  4.3475e-09  5.5079e-10  0:00:00    5
  1996  8.1207e-09  2.4328e-09  1.8559e-09  5.7200e-05  7.0876e-09  4.3543e-09  5.4618e-10  0:00:01    4
  1997  8.0994e-09  2.4252e-09  1.9335e-09  5.6415e-05  7.0686e-09  4.3598e-09  5.4141e-10  0:00:01    3
  1998  8.0726e-09  2.4206e-09  2.0088e-09  5.5703e-05  7.0435e-09  4.3616e-09  5.3706e-10  0:00:00    2
  1999  8.0404e-09  2.4197e-09  2.0811e-09  5.5069e-05  7.0127e-09  4.3607e-09  5.3273e-10  0:00:00    1
  2000  8.0029e-09  2.4233e-09  2.1498e-09  5.4519e-05  6.9762e-09  4.3573e-09  5.2892e-10  0:00:00    0

> 
adjoint/                parallel/               server/
define/                 parametric-study/       solve/
display/                plot/                   surface/
exit                    preferences/            turbo-workflow/
file/                   print-license-usage     views/
mesh/                   report/

> /file/write-case-data project1
Fast-loading "C:\PROGRA~1\ANSYSI~1\v231\fluent\fluent23.1.0\\addons\afd\lib\hdfio.bin"
Done.

Writing to Engs-30669:"C:\Users\kebl7595\Desktop\CFD\Runs\Viscous\27 degree\project1.cas.h5" in NODE0 mode and compression level 1 ...
       12996 cells,     1 zone  ...
       43722 faces,     8 zones ...
       17864 nodes,     1 zone  ...
  Done.
Done.

Writing to Engs-30669:"C:\Users\kebl7595\Desktop\CFD\Runs\Viscous\27 degree\project1.dat.h5" in NODE0 mode and compression level 1 ...
  Writing results.
Done.

> /file/export/ascii "./surface.dat" wing te () no pressure mach-number quit no

Writing "./surface.dat"...

Writing information to ascii file ...
Done.


> /report/forces/wall-forces y -0.45399 0.89101 0 y "Lift"

> /report/forces/wall-forces y 0.89101 0.45399 0 y "Drag"

> /exit

Posting ANSYS Product Improvement Program performance data 
Done.
Auto-Transcript Stop Time:  10:50:43, 21 May 2024 GMT Daylight Time 
Total Transcript Time: 5 Minute 49 Second.
