Auto-Transcript Start Time:  10:41:58, 21 May 2024 GMT Daylight Time 
Current Directory: "C:\Users\kebl7595\Desktop\CFD\Runs\Viscous\6 degrees"

              Welcome to ANSYS Fluent 2023 R1

              Copyright 1987-2023 ANSYS, Inc. All Rights Reserved.
              Unauthorized use, distribution or duplication is prohibited.
              This product is subject to U.S. laws governing export and re-export.
              For full Legal Notice, see documentation.

Build Time: Nov 28 2022 09:52:02 EST  Build Id: 10208  
 
Connected License Server List:	1055@ansyslic.eng.ox.ac.uk

*********************************************
Info: Your license enables 4-way parallel execution.
For faster simulations, please start the application with the appropriate parallel options.
*********************************************


     --------------------------------------------------------------
     This is an academic version of ANSYS FLUENT. Usage of this product
     license is limited to the terms and conditions specified in your ANSYS
     license form, additional terms section.
     --------------------------------------------------------------
Host spawning Node 0 on machine "Engs-30669" (win64).

------------------------------------------------------------------------------------
ID    Hostname    Core  O.S.         PID    Vendor                                 
------------------------------------------------------------------------------------
n0    Engs-30669  1/32  Windows-x64  44180  13th Gen Intel(R) Core(TM) i9-13900    
host  Engs-30669        Windows-x64  46912  13th Gen Intel(R) Core(TM) i9-13900    

MPI Option Selected: intel
------------------------------------------------------------------------------------

Cleanup script file is C:\\Users\\kebl7595\\Desktop\\CFD\\Runs\\Viscous\\6 degrees\\cleanup-fluent-Engs-30669-46912.bat
QA Service Message :
QA Services Agreement Enabled. This application is included in the scope of an ANSYS QA Services Agreement.
Posting ANSYS Product Improvement Program startup data
Done.

Reading journal file C:/Users/kebl7595/Desktop/CFD/Runs/Viscous/6 degrees/project1.jou...

> /file/set-batch-options no no no 

> 
define/                 parametric-study/       solve/
display/                plot/                   surface/
exit                    preferences/            switch-to-meshing-mode
file/                   print-license-usage     turbo-workflow/
mesh/                   report/                 views/
parallel/               server/

> /file/import/cgns/mesh  "./project1.cgns"
Engs-30669 has other FLUENT parallel processes running.                       Process affinity not being set.

Importing "./project1.cgns"

Opening library "C:\\PROGRA~1\\ANSYSI~1\\v231\\fluent\\fluent23.1.0\\vki\\win64\\devtools4.4.6.dll"... done.

Read    17864 nodes
   12996 hexahedral cells, zone  1
    9462 quadrilateral wall faces, zone  2.
   33972 quadrilateral interior faces, zone  3.
     282 quadrilateral interface faces, zone  4.
       6 quadrilateral wall faces, zone  5.

Building...
     mesh
     materials,
     interface,
     domains,
     zones,
	default_exterior-1
	interface-default_subface
	default_interior-1
	default_subface
	default
     parallel,
The automatic selection for flux type has changed to Rhie-Chow: momentum based.

Done.


> 
adjoint/                parallel/               server/
define/                 parametric-study/       solve/
display/                plot/                   surface/
exit                    preferences/            turbo-workflow/
file/                   print-license-usage     views/
mesh/                   report/

> /define/models/solver/density-based-implicit yes

> 
adjoint/                parallel/               server/
define/                 parametric-study/       solve/
display/                plot/                   surface/
exit                    preferences/            turbo-workflow/
file/                   print-license-usage     views/
mesh/                   report/

> /define/models/energy? yes yes invalid command [yes]
yes

> /define/models/viscous/kw-standard? yes

> 
adjoint/                parallel/               server/
define/                 parametric-study/       solve/
display/                plot/                   surface/
exit                    preferences/            turbo-workflow/
file/                   print-license-usage     views/
mesh/                   report/

> /define/materials/change-create air air air is a fluid
yes 
Density
ideal-gas no data required.

no no no no no no

> 
adjoint/                parallel/               server/
define/                 parametric-study/       solve/
display/                plot/                   surface/
exit                    preferences/            turbo-workflow/
file/                   print-license-usage     views/
mesh/                   report/

> /mesh/modify-zones/sep-face-zone-angle 2 90 yes

 4332 faces in contiguous region 0
 228 faces in contiguous region 1
 342 faces in contiguous region 2
 4332 faces in contiguous region 3
 228 faces in contiguous region 4
 Separates zone 2 into 5 zone(s).
Updating new zone information...
   created new zone default_subface:010 from default_subface
   created new zone default_subface:009 from default_subface
   created new zone default_subface:008 from default_subface
   created new zone default_subface:007 from default_subface
done.

> 
adjoint/                parallel/               server/
define/                 parametric-study/       solve/
display/                plot/                   surface/
exit                    preferences/            turbo-workflow/
file/                   print-license-usage     views/
mesh/                   report/

> /define/boundary-conditions/zone-name  5   te

> /define/boundary-conditions/zone-name  7 wing

> /define/boundary-conditions/zone-name  2 sym1

> /define/boundary-conditions/zone-name  9 sym2

> 
adjoint/                parallel/               server/
define/                 parametric-study/       solve/
display/                plot/                   surface/
exit                    preferences/            turbo-workflow/
file/                   print-license-usage     views/
mesh/                   report/

> /define/boundary-conditions/zone-name  8 far1

> /define/boundary-conditions/zone-name 10 far2

> 
adjoint/                parallel/               server/
define/                 parametric-study/       solve/
display/                plot/                   surface/
exit                    preferences/            turbo-workflow/
file/                   print-license-usage     views/
mesh/                   report/

> /define/boundary-conditions/zone-type  8 pressure-far-field

> /define/boundary-conditions/zone-type 10 pressure-far-field

> /define/boundary-conditions/zone-type  2 symmetry

> /define/boundary-conditions/zone-type  9 symmetry

> 
adjoint/                parallel/               server/
define/                 parametric-study/       solve/
display/                plot/                   surface/
exit                    preferences/            turbo-workflow/
file/                   print-license-usage     views/
mesh/                   report/

> /define/boundary-conditions/pressure-far-field (far2 far1)
far1 no 0 no 0.1 no 300 yes no 0.99452 no 0.10453 no 0. no yes 5 0.02

> /define/boundary-conditions/pressure-far-field (far2 far1)
far2 no 0 no 0.1 no 300 yes no 0.99452 no 0.10453 no 0. no yes 5 0.02

> 
adjoint/                parallel/               server/
define/                 parametric-study/       solve/
display/                plot/                   surface/
exit                    preferences/            turbo-workflow/
file/                   print-license-usage     views/
mesh/                   report/

> /solve/initialize/compute-defaults/pressure-far-field (far2 far1)
far1

> /solve/initialize/initialize-flow

> 
adjoint/                parallel/               server/
define/                 parametric-study/       solve/
display/                plot/                   surface/
exit                    preferences/            turbo-workflow/
file/                   print-license-usage     views/
mesh/                   report/

> /solve/monitors/residual/convergence-criteria 1.e-9 1.e-9 1.e-9 1.e-9 1.e-9 1.e-9 1.e-9

> /solve/iterate 2000

  iter  continuity  x-velocity  y-velocity  z-velocity      energy           k       omega     time/iter
     1  1.0000e+00  1.0000e+00  1.0000e+00  1.0000e+00  1.0000e+00  1.7898e-01  1.3150e-01  0:00:00 1999
     2  5.1510e-01  3.7123e-01  4.3053e-01  1.0000e+00  5.1570e-01  1.3609e-01  1.0466e-01  0:00:00 1998
     3  2.9194e-01  1.9807e-01  2.2977e-01  1.0000e+00  2.9217e-01  1.0705e-01  8.5916e-02  0:00:00 1997
     4  1.8756e-01  1.5473e-01  1.5234e-01  7.2609e-01  1.8761e-01  8.7398e-02  7.1983e-02  0:33:16 1996
     5  1.3641e-01  1.3290e-01  1.0638e-01  6.5962e-01  1.3643e-01  7.4268e-02  6.1614e-02  0:26:36 1995
     6  1.0984e-01  1.0025e-01  7.5484e-02  8.2897e-01  1.0988e-01  6.4271e-02  5.4033e-02  0:21:16 1994
     7  9.3672e-02  7.6661e-02  5.5226e-02  8.3159e-01  9.3747e-02  5.6196e-02  4.7967e-02  0:17:00 1993
     8  8.1287e-02  6.0831e-02  4.2475e-02  7.3691e-01  8.1388e-02  4.9564e-02  4.2940e-02  0:13:36 1992
     9  7.1394e-02  5.0007e-02  3.4455e-02  6.8469e-01  7.1507e-02  4.4083e-02  3.8702e-02  0:10:52 1991
    10  6.3462e-02  4.2953e-02  2.9189e-02  6.3728e-01  6.3576e-02  3.9574e-02  3.5094e-02  0:08:42 1990
    11  5.7313e-02  3.9153e-02  2.5376e-02  5.8485e-01  5.7423e-02  3.5879e-02  3.2006e-02  0:06:57 1989

  iter  continuity  x-velocity  y-velocity  z-velocity      energy           k       omega     time/iter
    12  5.2817e-02  3.7536e-02  2.2387e-02  5.4224e-01  5.2921e-02  3.2783e-02  2.9371e-02  0:05:34 1988
    13  4.9886e-02  3.7341e-02  1.9958e-02  5.1096e-01  4.9984e-02  3.0134e-02  2.7103e-02  0:04:27 1987
    14  4.8292e-02  3.7950e-02  1.8028e-02  4.9463e-01  4.8383e-02  2.7867e-02  2.5111e-02  0:03:33 1986
    15  4.7818e-02  3.9063e-02  1.6557e-02  4.9629e-01  4.7903e-02  2.5893e-02  2.3353e-02  0:02:51 1985
    16  4.8207e-02  4.0499e-02  1.5539e-02  5.1081e-01  4.8286e-02  2.4163e-02  2.1800e-02  0:08:53 1984
    17  4.9211e-02  4.2203e-02  1.4913e-02  5.3003e-01  4.9285e-02  2.2618e-02  2.0416e-02  0:07:06 1983
    18  5.0613e-02  4.4080e-02  1.4615e-02  5.5478e-01  5.0682e-02  2.1226e-02  1.9173e-02  0:05:41 1982
    19  5.2221e-02  4.6034e-02  1.4580e-02  5.8259e-01  5.2284e-02  1.9973e-02  1.8048e-02  0:04:33 1981
    20  5.3879e-02  4.7895e-02  1.4851e-02  6.1393e-01  5.3935e-02  1.8829e-02  1.7032e-02  0:03:38 1980
    21  5.5424e-02  4.9536e-02  1.5316e-02  6.4738e-01  5.5472e-02  1.7776e-02  1.6102e-02  0:02:54 1979
    22  5.6733e-02  5.0886e-02  1.5976e-02  6.8075e-01  5.6773e-02  1.6809e-02  1.5248e-02  0:02:19 1978

  iter  continuity  x-velocity  y-velocity  z-velocity      energy           k       omega     time/iter
    23  5.7700e-02  5.1829e-02  1.6808e-02  7.1042e-01  5.7729e-02  1.5918e-02  1.4466e-02  0:01:51 1977
    24  5.8230e-02  5.2279e-02  1.7727e-02  7.3343e-01  5.8250e-02  1.5090e-02  1.3744e-02  0:01:29 1976
    25  5.8238e-02  5.1822e-02  1.8811e-02  7.4673e-01  5.8246e-02  1.4326e-02  1.3069e-02  0:01:11 1975
    26  5.7688e-02  5.1002e-02  1.9696e-02  7.4835e-01  5.7685e-02  1.3617e-02  1.2441e-02  0:00:57 1974
    27  5.6576e-02  4.9797e-02  2.0392e-02  7.3613e-01  5.6561e-02  1.2961e-02  1.1861e-02  0:00:46 1973
    28  5.4905e-02  4.8150e-02  2.0908e-02  7.1127e-01  5.4880e-02  1.2363e-02  1.1317e-02  0:00:36 1972
    29  5.2699e-02  4.6069e-02  2.1275e-02  6.7426e-01  5.2665e-02  1.1803e-02  1.0809e-02  0:00:29 1971
    30  5.0001e-02  4.3593e-02  2.1485e-02  6.2770e-01  4.9958e-02  1.1277e-02  1.0336e-02  0:00:23 1970
    31  4.6840e-02  4.0826e-02  2.1499e-02  5.7493e-01  4.6789e-02  1.0784e-02  9.8919e-03  0:06:52 1969
    32  4.3302e-02  3.8056e-02  2.1370e-02  5.1979e-01  4.3246e-02  1.0318e-02  9.4713e-03  0:05:30 1968
    33  3.9450e-02  3.5387e-02  2.1119e-02  4.7386e-01  3.9390e-02  9.8788e-03  9.0708e-03  0:04:24 1967

  iter  continuity  x-velocity  y-velocity  z-velocity      energy           k       omega     time/iter
    34  3.5360e-02  3.3024e-02  2.0904e-02  4.4430e-01  3.5297e-02  9.4724e-03  8.6870e-03  0:03:31 1966
    35  3.1107e-02  3.1113e-02  2.0745e-02  4.3957e-01  3.1044e-02  9.0973e-03  8.3237e-03  0:02:49 1965
    36  2.6781e-02  2.9724e-02  2.0705e-02  4.5893e-01  2.6718e-02  8.7382e-03  7.9722e-03  0:02:15 1964
    37  2.2477e-02  2.8983e-02  2.0814e-02  4.9968e-01  2.2416e-02  8.4003e-03  7.6400e-03  0:01:48 1963
    38  1.8312e-02  2.8937e-02  2.1067e-02  5.5417e-01  1.8252e-02  8.0726e-03  7.3202e-03  0:01:26 1962
    39  1.4428e-02  2.9531e-02  2.1457e-02  6.1618e-01  1.4370e-02  7.7538e-03  7.0125e-03  0:01:09 1961
    40  1.1021e-02  3.0482e-02  2.1890e-02  6.7861e-01  1.0965e-02  7.4538e-03  6.7295e-03  0:00:55 1960
    41  8.4719e-03  3.1924e-02  2.2366e-02  7.3714e-01  8.4201e-03  7.1724e-03  6.4464e-03  0:00:44 1959
    42  7.2779e-03  3.3494e-02  2.2844e-02  7.9032e-01  7.2361e-03  6.9175e-03  6.1936e-03  0:00:35 1958
    43  7.6696e-03  3.5027e-02  2.3287e-02  8.3480e-01  7.6425e-03  6.6737e-03  5.9467e-03  0:00:28 1957
    44  9.1095e-03  3.6443e-02  2.3652e-02  8.6822e-01  9.0934e-03  6.4445e-03  5.7043e-03  0:00:23 1956

  iter  continuity  x-velocity  y-velocity  z-velocity      energy           k       omega     time/iter
    45  1.0926e-02  3.7661e-02  2.3899e-02  8.8602e-01  1.0916e-02  6.2295e-03  5.4650e-03  0:00:18 1955
    46  1.2754e-02  3.8646e-02  2.4006e-02  8.8590e-01  1.2747e-02  6.0201e-03  5.2373e-03  0:06:45 1954
    47  1.4439e-02  3.9345e-02  2.3964e-02  8.7163e-01  1.4432e-02  5.8112e-03  5.0083e-03  0:05:24 1953
    48  1.5916e-02  3.9754e-02  2.3771e-02  8.5056e-01  1.5911e-02  5.6084e-03  4.7989e-03  0:04:19 1952
    49  1.7165e-02  3.9900e-02  2.3432e-02  8.1592e-01  1.7159e-02  5.4222e-03  4.6028e-03  0:03:27 1951
    50  1.8178e-02  3.9784e-02  2.2966e-02  7.6770e-01  1.8172e-02  5.2473e-03  4.4141e-03  0:02:46 1950
    51  1.8959e-02  3.9450e-02  2.2380e-02  7.1194e-01  1.8954e-02  5.0801e-03  4.2351e-03  0:02:12 1949
    52  1.9522e-02  3.8851e-02  2.1719e-02  6.4859e-01  1.9516e-02  4.9293e-03  4.0692e-03  0:01:46 1948
    53  1.9882e-02  3.8032e-02  2.0990e-02  5.7727e-01  1.9877e-02  4.7889e-03  3.9156e-03  0:01:25 1947
    54  2.0057e-02  3.7026e-02  2.0206e-02  5.1450e-01  2.0052e-02  4.6612e-03  3.7697e-03  0:01:08 1946
    55  2.0061e-02  3.5864e-02  1.9381e-02  4.5730e-01  2.0057e-02  4.5656e-03  3.6408e-03  0:00:54 1945

  iter  continuity  x-velocity  y-velocity  z-velocity      energy           k       omega     time/iter
    56  1.9913e-02  3.4580e-02  1.8528e-02  4.1183e-01  1.9909e-02  4.4749e-03  3.5178e-03  0:00:43 1944
    57  1.9627e-02  3.3202e-02  1.7653e-02  3.8453e-01  1.9624e-02  4.3894e-03  3.4034e-03  0:00:35 1943
    58  1.9219e-02  3.1732e-02  1.6772e-02  3.8050e-01  1.9216e-02  4.3120e-03  3.3005e-03  0:00:28 1942
    59  1.8696e-02  3.0174e-02  1.5902e-02  3.9838e-01  1.8693e-02  4.2337e-03  3.2068e-03  0:00:22 1941
    60  1.8070e-02  2.8586e-02  1.5030e-02  4.3112e-01  1.8068e-02  4.1571e-03  3.1183e-03  0:00:18 1940
    61  1.7350e-02  2.6933e-02  1.4164e-02  4.7314e-01  1.7349e-02  4.0836e-03  3.0337e-03  0:00:14 1939
    62  1.6544e-02  2.5257e-02  1.3298e-02  5.1686e-01  1.6542e-02  4.0078e-03  2.9509e-03  0:06:39 1938
    63  1.5656e-02  2.3574e-02  1.2437e-02  5.5803e-01  1.5654e-02  3.9274e-03  2.8760e-03  0:05:19 1937
    64  1.4692e-02  2.1899e-02  1.1592e-02  5.9411e-01  1.4691e-02  3.8514e-03  2.7982e-03  0:04:15 1936
    65  1.3664e-02  2.0240e-02  1.0770e-02  6.2385e-01  1.3662e-02  3.7774e-03  2.7295e-03  0:03:24 1935
    66  1.2580e-02  1.8645e-02  9.9677e-03  6.4087e-01  1.2579e-02  3.7020e-03  2.6582e-03  0:02:43 1934

  iter  continuity  x-velocity  y-velocity  z-velocity      energy           k       omega     time/iter
    67  1.1451e-02  1.7140e-02  9.1877e-03  6.4278e-01  1.1449e-02  3.6278e-03  2.5914e-03  0:02:10 1933
    68  1.0290e-02  1.5757e-02  8.4379e-03  6.4143e-01  1.0288e-02  3.5533e-03  2.5267e-03  0:01:44 1932
    69  9.1136e-03  1.4549e-02  7.7163e-03  6.3384e-01  9.1103e-03  3.4754e-03  2.4639e-03  0:01:23 1931
    70  7.9430e-03  1.3573e-02  7.0169e-03  6.1804e-01  7.9389e-03  3.3952e-03  2.4002e-03  0:01:07 1930
    71  6.8149e-03  1.2854e-02  6.3496e-03  5.9237e-01  6.8096e-03  3.3162e-03  2.3359e-03  0:00:53 1929
    72  5.8039e-03  1.2427e-02  5.7310e-03  5.6093e-01  5.7973e-03  3.2416e-03  2.2729e-03  0:00:43 1928
    73  5.0285e-03  1.2317e-02  5.1688e-03  5.2687e-01  5.0203e-03  3.1595e-03  2.2002e-03  0:00:34 1927
    74  4.6508e-03  1.2536e-02  4.6663e-03  4.9403e-01  4.6412e-03  3.0846e-03  2.1302e-03  0:00:27 1926
    75  4.8260e-03  1.2995e-02  4.2381e-03  4.6628e-01  4.8159e-03  3.0140e-03  2.0869e-03  0:00:22 1925
    76  5.5409e-03  1.3632e-02  3.8896e-03  4.4876e-01  5.5313e-03  2.9485e-03  2.0498e-03  0:06:42 1924
    77  6.6448e-03  1.4416e-02  3.6274e-03  4.4587e-01  6.6358e-03  2.8897e-03  2.0236e-03  0:05:22 1923

  iter  continuity  x-velocity  y-velocity  z-velocity      energy           k       omega     time/iter
    78  8.0117e-03  1.5275e-02  3.4680e-03  4.5947e-01  8.0032e-03  2.8384e-03  1.9919e-03  0:04:17 1922
    79  9.5421e-03  1.6156e-02  3.3972e-03  4.8423e-01  9.5338e-03  2.7963e-03  1.9583e-03  0:03:26 1921
    80  1.1179e-02  1.7019e-02  3.4095e-03  5.2787e-01  1.1171e-02  2.7638e-03  1.9255e-03  0:02:44 1920
    81  1.2877e-02  1.7819e-02  3.4868e-03  5.7540e-01  1.2868e-02  2.7398e-03  1.8986e-03  0:02:11 1919
    82  1.4603e-02  1.8557e-02  3.6154e-03  6.2856e-01  1.4594e-02  2.7357e-03  1.8799e-03  0:01:45 1918
    83  1.6330e-02  1.9203e-02  3.7810e-03  6.7861e-01  1.6320e-02  2.7366e-03  1.8604e-03  0:01:24 1917
    84  1.8014e-02  1.9761e-02  3.9616e-03  7.2154e-01  1.8002e-02  2.7415e-03  1.8379e-03  0:01:07 1916
    85  1.9595e-02  2.0176e-02  4.1584e-03  7.5223e-01  1.9582e-02  2.7478e-03  1.8181e-03  0:00:54 1915
    86  2.1043e-02  2.0418e-02  4.3520e-03  7.7129e-01  2.1029e-02  2.7534e-03  1.7940e-03  0:00:43 1914
    87  2.2270e-02  2.0462e-02  4.5356e-03  7.7732e-01  2.2255e-02  2.7596e-03  1.7702e-03  0:00:34 1913
    88  2.3228e-02  2.0323e-02  4.6760e-03  7.7111e-01  2.3211e-02  2.7633e-03  1.7432e-03  0:00:27 1912

  iter  continuity  x-velocity  y-velocity  z-velocity      energy           k       omega     time/iter
    89  2.3901e-02  2.0028e-02  4.7755e-03  7.5297e-01  2.3881e-02  2.7663e-03  1.7171e-03  0:00:22 1911
    90  2.4298e-02  1.9593e-02  4.8354e-03  7.2309e-01  2.4276e-02  2.7707e-03  1.6968e-03  0:00:18 1910
    91  2.4437e-02  1.9033e-02  4.8500e-03  6.8003e-01  2.4413e-02  2.7759e-03  1.6688e-03  0:00:14 1909
    92  2.4318e-02  1.8352e-02  4.8027e-03  6.2484e-01  2.4291e-02  2.7781e-03  1.6484e-03  0:06:33 1908
    93  2.3876e-02  1.7569e-02  4.7029e-03  5.6016e-01  2.3848e-02  2.7774e-03  1.6163e-03  0:05:14 1907
    94  2.3203e-02  1.6732e-02  4.5910e-03  4.8430e-01  2.3173e-02  2.7729e-03  1.5897e-03  0:04:11 1906
    95  2.2315e-02  1.5873e-02  4.4803e-03  4.1649e-01  2.2283e-02  2.7693e-03  1.5640e-03  0:03:21 1905
    96  2.1225e-02  1.5005e-02  4.3823e-03  3.5195e-01  2.1192e-02  2.7643e-03  1.5429e-03  0:02:41 1904
    97  1.9979e-02  1.4182e-02  4.3212e-03  3.0176e-01  1.9945e-02  2.7628e-03  1.5263e-03  0:02:08 1903
    98  1.8572e-02  1.3333e-02  4.2125e-03  2.8236e-01  1.8537e-02  2.7573e-03  1.5186e-03  0:01:43 1902
    99  1.7045e-02  1.2802e-02  4.2391e-03  3.0389e-01  1.7009e-02  2.7455e-03  1.5109e-03  0:01:22 1901

  iter  continuity  x-velocity  y-velocity  z-velocity      energy           k       omega     time/iter
   100  1.5399e-02  1.2504e-02  4.3986e-03  3.6068e-01  1.5364e-02  2.7298e-03  1.5067e-03  0:01:06 1900
   101  1.3652e-02  1.2467e-02  4.6699e-03  4.3771e-01  1.3617e-02  2.7134e-03  1.4959e-03  0:00:52 1899
   102  1.1858e-02  1.2685e-02  5.0202e-03  5.2266e-01  1.1823e-02  2.6962e-03  1.4934e-03  0:00:42 1898
   103  1.0068e-02  1.3122e-02  5.4202e-03  6.0939e-01  1.0034e-02  2.6758e-03  1.4960e-03  0:00:34 1897
   104  8.3184e-03  1.3742e-02  5.8421e-03  6.9280e-01  8.2858e-03  2.6539e-03  1.4829e-03  0:00:27 1896
   105  6.6631e-03  1.4473e-02  6.2685e-03  7.6901e-01  6.6319e-03  2.6301e-03  1.4477e-03  0:00:21 1895
   106  5.1938e-03  1.5257e-02  6.6788e-03  8.3501e-01  5.1651e-03  2.6039e-03  1.4087e-03  0:06:36 1894
   107  4.0885e-03  1.6046e-02  7.0529e-03  8.8835e-01  4.0644e-03  2.5752e-03  1.3910e-03  0:05:17 1893
   108  3.6857e-03  1.6812e-02  7.3824e-03  9.2767e-01  3.6707e-03  2.5485e-03  1.3711e-03  0:04:13 1892
   109  4.0807e-03  1.7511e-02  7.6566e-03  9.5403e-01  4.0756e-03  2.5085e-03  1.3468e-03  0:03:22 1891
   110  5.0034e-03  1.8114e-02  7.8731e-03  9.7405e-01  5.0044e-03  2.4727e-03  1.3271e-03  0:02:42 1890

  iter  continuity  x-velocity  y-velocity  z-velocity      energy           k       omega     time/iter
   111  6.1229e-03  1.8623e-02  8.0280e-03  9.7814e-01  6.1267e-03  2.4411e-03  1.3110e-03  0:02:09 1889
   112  7.2734e-03  1.9024e-02  8.1202e-03  9.6941e-01  7.2782e-03  2.4080e-03  1.2909e-03  0:01:43 1888
   113  8.3904e-03  1.9302e-02  8.1504e-03  9.5489e-01  8.3952e-03  2.3750e-03  1.2721e-03  0:01:23 1887
   114  9.4239e-03  1.9451e-02  8.1205e-03  9.3659e-01  9.4282e-03  2.3444e-03  1.2569e-03  0:01:06 1886
   115  1.0351e-02  1.9461e-02  8.0338e-03  9.0025e-01  1.0355e-02  2.3207e-03  1.2405e-03  0:00:53 1885
   116  1.1159e-02  1.9343e-02  7.9028e-03  8.5738e-01  1.1161e-02  2.2991e-03  1.2221e-03  0:00:42 1884
   117  1.1840e-02  1.9122e-02  7.7162e-03  8.0059e-01  1.1842e-02  2.2782e-03  1.2068e-03  0:00:34 1883
   118  1.2389e-02  1.8785e-02  7.4832e-03  7.3588e-01  1.2390e-02  2.2568e-03  1.1922e-03  0:00:27 1882
   119  1.2802e-02  1.8337e-02  7.2106e-03  6.6357e-01  1.2803e-02  2.2373e-03  1.1763e-03  0:00:22 1881
   120  1.3075e-02  1.7788e-02  6.9051e-03  5.8508e-01  1.3075e-02  2.2115e-03  1.1598e-03  0:06:33 1880
   121  1.3209e-02  1.7143e-02  6.5725e-03  5.0278e-01  1.3208e-02  2.1850e-03  1.1437e-03  0:05:14 1879

  iter  continuity  x-velocity  y-velocity  z-velocity      energy           k       omega     time/iter
   122  1.3205e-02  1.6416e-02  6.2171e-03  4.1745e-01  1.3204e-02  2.1552e-03  1.1236e-03  0:04:11 1878
   123  1.3070e-02  1.5635e-02  5.8429e-03  3.3288e-01  1.3068e-02  2.1254e-03  1.1057e-03  0:03:21 1877
   124  1.2808e-02  1.4771e-02  5.4779e-03  2.5215e-01  1.2805e-02  2.0942e-03  1.0873e-03  0:02:41 1876
   125  1.2427e-02  1.3896e-02  5.0925e-03  1.8473e-01  1.2424e-02  2.0620e-03  1.0677e-03  0:02:09 1875
   126  1.1936e-02  1.3017e-02  4.6891e-03  1.4929e-01  1.1933e-02  2.0284e-03  1.0476e-03  0:01:43 1874
   127  1.1341e-02  1.2201e-02  4.2430e-03  1.6454e-01  1.1338e-02  1.9959e-03  1.0319e-03  0:01:22 1873
   128  1.0647e-02  1.1508e-02  3.7849e-03  2.1526e-01  1.0644e-02  1.9620e-03  1.0284e-03  0:01:06 1872
   129  9.8751e-03  1.0689e-02  3.4363e-03  2.7807e-01  9.8716e-03  1.9236e-03  1.0138e-03  0:00:53 1871
   130  9.0427e-03  9.8679e-03  3.1121e-03  3.4244e-01  9.0392e-03  1.8845e-03  1.0070e-03  0:00:42 1870
   131  8.1514e-03  9.1104e-03  2.8025e-03  4.0402e-01  8.1477e-03  1.8458e-03  9.9597e-04  0:00:34 1869
   132  7.2036e-03  8.4386e-03  2.5298e-03  4.6085e-01  7.1998e-03  1.8142e-03  9.8234e-04  0:00:27 1868

  iter  continuity  x-velocity  y-velocity  z-velocity      energy           k       omega     time/iter
   133  6.2213e-03  7.9216e-03  2.2926e-03  5.1078e-01  6.2174e-03  1.7699e-03  9.6472e-04  0:00:21 1867
   134  5.2259e-03  7.6035e-03  2.1219e-03  5.5382e-01  5.2220e-03  1.7303e-03  9.5196e-04  0:06:30 1866
   135  4.2481e-03  7.4321e-03  2.0619e-03  5.8978e-01  4.2440e-03  1.6940e-03  9.3463e-04  0:05:12 1865
   136  3.3310e-03  7.3333e-03  2.0571e-03  6.1883e-01  3.3269e-03  1.6573e-03  9.1163e-04  0:04:10 1864
   137  2.5584e-03  7.3203e-03  2.0894e-03  6.4070e-01  2.5544e-03  1.6200e-03  8.8779e-04  0:03:20 1863
   138  2.0753e-03  7.3890e-03  2.1562e-03  6.5549e-01  2.0718e-03  1.5833e-03  8.6954e-04  0:02:40 1862
   139  2.0770e-03  7.5195e-03  2.2467e-03  6.6406e-01  2.0748e-03  1.5471e-03  8.5004e-04  0:02:08 1861
   140  2.5282e-03  7.6891e-03  2.3500e-03  6.6865e-01  2.5271e-03  1.5128e-03  8.3652e-04  0:01:42 1860
   141  3.2056e-03  7.8724e-03  2.4574e-03  6.6444e-01  3.2052e-03  1.4789e-03  8.2405e-04  0:01:22 1859
   142  3.9577e-03  8.0557e-03  2.5615e-03  6.5983e-01  3.9575e-03  1.4472e-03  8.0950e-04  0:01:05 1858
   143  4.7105e-03  8.2173e-03  2.6583e-03  6.5009e-01  4.7103e-03  1.4177e-03  7.9405e-04  0:00:52 1857

  iter  continuity  x-velocity  y-velocity  z-velocity      energy           k       omega     time/iter
   144  5.4280e-03  8.3394e-03  2.7479e-03  6.3335e-01  5.4276e-03  1.3903e-03  7.7848e-04  0:00:42 1856
   145  6.0895e-03  8.4236e-03  2.8192e-03  6.1449e-01  6.0888e-03  1.3636e-03  7.6121e-04  0:00:33 1855
   146  6.6816e-03  8.4616e-03  2.8703e-03  5.9073e-01  6.6806e-03  1.3364e-03  7.4455e-04  0:00:27 1854
   147  7.1964e-03  8.4503e-03  2.9032e-03  5.6277e-01  7.1950e-03  1.3128e-03  7.3130e-04  0:06:32 1853
   148  7.6278e-03  8.3872e-03  2.9201e-03  5.3049e-01  7.6260e-03  1.2921e-03  7.1545e-04  0:05:13 1852
   149  7.9713e-03  8.2702e-03  2.9198e-03  4.9802e-01  7.9692e-03  1.2707e-03  7.0213e-04  0:04:11 1851
   150  8.2239e-03  8.1026e-03  2.9022e-03  4.6385e-01  8.2215e-03  1.2507e-03  6.9306e-04  0:03:20 1850
   151  8.3848e-03  7.8904e-03  2.8668e-03  4.2770e-01  8.3820e-03  1.2317e-03  6.8233e-04  0:02:40 1849
   152  8.4546e-03  7.6392e-03  2.8151e-03  3.9132e-01  8.4515e-03  1.2137e-03  6.7768e-04  0:02:08 1848
   153  8.4352e-03  7.3554e-03  2.7505e-03  3.5400e-01  8.4318e-03  1.1960e-03  6.6604e-04  0:01:42 1847
   154  8.3297e-03  7.0412e-03  2.6827e-03  3.1627e-01  8.3261e-03  1.1762e-03  6.5851e-04  0:01:22 1846

  iter  continuity  x-velocity  y-velocity  z-velocity      energy           k       omega     time/iter
   155  8.1419e-03  6.7176e-03  2.5986e-03  2.7921e-01  8.1381e-03  1.1556e-03  6.5431e-04  0:01:05 1845
   156  7.8767e-03  6.3929e-03  2.5027e-03  2.4215e-01  7.8728e-03  1.1357e-03  6.4810e-04  0:00:52 1844
   157  7.5396e-03  6.0769e-03  2.3989e-03  2.0585e-01  7.5357e-03  1.1146e-03  6.4255e-04  0:00:42 1843
   158  7.1371e-03  5.7812e-03  2.2902e-03  1.7291e-01  7.1332e-03  1.0938e-03  6.3011e-04  0:00:33 1842
   159  6.6761e-03  5.5183e-03  2.1792e-03  1.4305e-01  6.6724e-03  1.0747e-03  6.1804e-04  0:00:27 1841
   160  6.1645e-03  5.2997e-03  2.0686e-03  1.2029e-01  6.1608e-03  1.0565e-03  6.1307e-04  0:00:21 1840
   161  5.6108e-03  5.1352e-03  1.9610e-03  1.0888e-01  5.6074e-03  1.0393e-03  6.1283e-04  0:00:17 1839
   162  5.0247e-03  5.0310e-03  1.8591e-03  1.1117e-01  5.0216e-03  1.0239e-03  6.1083e-04  0:00:14 1838
   163  4.4117e-03  4.9887e-03  1.7648e-03  1.2457e-01  4.4088e-03  1.0124e-03  6.1424e-04  0:06:18 1837
   164  3.7918e-03  5.0062e-03  1.6802e-03  1.4458e-01  3.7893e-03  1.0032e-03  6.1498e-04  0:05:03 1836
   165  3.1815e-03  5.0761e-03  1.6070e-03  1.6783e-01  3.1794e-03  9.9726e-04  6.2136e-04  0:04:02 1835

  iter  continuity  x-velocity  y-velocity  z-velocity      energy           k       omega     time/iter
   166  2.6024e-03  5.1867e-03  1.5463e-03  1.9225e-01  2.6007e-03  9.9553e-04  6.1947e-04  0:03:13 1834
   167  2.0894e-03  5.3264e-03  1.4985e-03  2.1596e-01  2.0881e-03  9.9507e-04  6.2458e-04  0:02:35 1833
   168  1.7053e-03  5.4830e-03  1.4633e-03  2.3860e-01  1.7042e-03  9.9595e-04  6.2743e-04  0:02:04 1832
   169  1.5398e-03  5.6456e-03  1.4398e-03  2.5944e-01  1.5389e-03  9.9668e-04  6.3039e-04  0:01:39 1831
   170  1.6380e-03  5.8034e-03  1.4269e-03  2.7758e-01  1.6371e-03  9.9777e-04  6.3498e-04  0:01:19 1830
   171  1.9342e-03  5.9523e-03  1.4167e-03  2.9320e-01  1.9332e-03  9.9842e-04  6.3472e-04  0:01:03 1829
   172  2.3284e-03  6.0925e-03  1.4058e-03  3.0553e-01  2.3272e-03  9.9925e-04  6.2871e-04  0:00:51 1828
   173  2.7545e-03  6.1855e-03  1.4236e-03  3.1520e-01  2.7529e-03  1.0021e-03  6.2816e-04  0:00:40 1827
   174  3.1753e-03  6.2423e-03  1.4460e-03  3.2211e-01  3.1736e-03  1.0062e-03  6.2791e-04  0:00:32 1826
   175  3.5709e-03  6.2673e-03  1.4659e-03  3.2673e-01  3.5689e-03  1.0115e-03  6.2794e-04  0:00:26 1825
   176  3.9296e-03  6.2612e-03  1.4821e-03  3.2873e-01  3.9274e-03  1.0162e-03  6.2646e-04  0:00:21 1824

  iter  continuity  x-velocity  y-velocity  z-velocity      energy           k       omega     time/iter
   177  4.2446e-03  6.2243e-03  1.4951e-03  3.2832e-01  4.2423e-03  1.0204e-03  6.2567e-04  0:06:21 1823
   178  4.5114e-03  6.1745e-03  1.4971e-03  3.2542e-01  4.5089e-03  1.0261e-03  6.2350e-04  0:05:05 1822
   179  4.7272e-03  6.0916e-03  1.5045e-03  3.1999e-01  4.7247e-03  1.0322e-03  6.2069e-04  0:04:04 1821
   180  4.8904e-03  5.9739e-03  1.5140e-03  3.1233e-01  4.8879e-03  1.0380e-03  6.1771e-04  0:03:15 1820
   181  5.0006e-03  5.8284e-03  1.5205e-03  3.0272e-01  4.9981e-03  1.0443e-03  6.0991e-04  0:02:36 1819
   182  5.0580e-03  5.6586e-03  1.5227e-03  2.9162e-01  5.0556e-03  1.0505e-03  6.0506e-04  0:02:05 1818
   183  5.0642e-03  5.4686e-03  1.5204e-03  2.7842e-01  5.0618e-03  1.0558e-03  5.9867e-04  0:01:40 1817
   184  5.0205e-03  5.2624e-03  1.5135e-03  2.6338e-01  5.0182e-03  1.0597e-03  5.9416e-04  0:01:20 1816
   185  4.9292e-03  5.0439e-03  1.5018e-03  2.4681e-01  4.9270e-03  1.0626e-03  5.8790e-04  0:01:04 1815
   186  4.7934e-03  4.8175e-03  1.4855e-03  2.2864e-01  4.7914e-03  1.0643e-03  5.8372e-04  0:00:51 1814
   187  4.6167e-03  4.5877e-03  1.4645e-03  2.0962e-01  4.6149e-03  1.0651e-03  5.7914e-04  0:00:41 1813

  iter  continuity  x-velocity  y-velocity  z-velocity      energy           k       omega     time/iter
   188  4.4029e-03  4.3589e-03  1.4386e-03  1.8994e-01  4.4012e-03  1.0641e-03  5.7575e-04  0:00:33 1812
   189  4.1561e-03  4.1350e-03  1.4082e-03  1.7022e-01  4.1546e-03  1.0620e-03  5.7497e-04  0:00:26 1811
   190  3.8807e-03  3.9203e-03  1.3733e-03  1.5048e-01  3.8795e-03  1.0580e-03  5.6914e-04  0:00:21 1810
   191  3.5818e-03  3.7191e-03  1.3342e-03  1.3180e-01  3.5806e-03  1.0528e-03  5.6151e-04  0:06:18 1809
   192  3.2642e-03  3.5347e-03  1.2913e-03  1.1501e-01  3.2632e-03  1.0485e-03  5.5311e-04  0:05:03 1808
   193  2.9335e-03  3.3703e-03  1.2451e-03  1.0120e-01  2.9327e-03  1.0436e-03  5.4731e-04  0:04:02 1807
   194  2.5957e-03  3.2282e-03  1.1961e-03  9.2177e-02  2.5951e-03  1.0379e-03  5.4557e-04  0:03:13 1806
   195  2.2580e-03  3.1101e-03  1.1452e-03  8.9278e-02  2.2574e-03  1.0310e-03  5.4649e-04  0:02:35 1805
   196  1.9288e-03  3.0163e-03  1.0932e-03  9.2713e-02  1.9283e-03  1.0228e-03  5.4445e-04  0:02:04 1804
   197  1.6200e-03  2.9462e-03  1.0409e-03  1.0093e-01  1.6195e-03  1.0151e-03  5.4003e-04  0:01:39 1803
   198  1.3483e-03  2.8982e-03  9.8954e-04  1.1240e-01  1.3477e-03  1.0062e-03  5.2628e-04  0:01:19 1802

  iter  continuity  x-velocity  y-velocity  z-velocity      energy           k       omega     time/iter
   199  1.1389e-03  2.8697e-03  9.4016e-04  1.2549e-01  1.1382e-03  9.9425e-04  5.1676e-04  0:01:03 1801
   200  1.0237e-03  2.8573e-03  8.9396e-04  1.3910e-01  1.0228e-03  9.7994e-04  5.1295e-04  0:00:51 1800
   201  1.0235e-03  2.8579e-03  8.5212e-04  1.5256e-01  1.0223e-03  9.6625e-04  5.0626e-04  0:00:40 1799
   202  1.1246e-03  2.8681e-03  8.1565e-04  1.6484e-01  1.1232e-03  9.5258e-04  4.9489e-04  0:00:32 1798
   203  1.2900e-03  2.8849e-03  7.8536e-04  1.7545e-01  1.2885e-03  9.3927e-04  4.8475e-04  0:00:26 1797
   204  1.4855e-03  2.9055e-03  7.6178e-04  1.8445e-01  1.4839e-03  9.2740e-04  4.7553e-04  0:00:21 1796
   205  1.6888e-03  2.9274e-03  7.4499e-04  1.9136e-01  1.6872e-03  9.1565e-04  4.6778e-04  0:06:16 1795
   206  1.8865e-03  2.9486e-03  7.3465e-04  1.9608e-01  1.8848e-03  9.0397e-04  4.5864e-04  0:05:00 1794
   207  2.0710e-03  2.9675e-03  7.3014e-04  1.9858e-01  2.0693e-03  8.9180e-04  4.4873e-04  0:04:00 1793
   208  2.2375e-03  2.9829e-03  7.3040e-04  1.9721e-01  2.2358e-03  8.8032e-04  4.4084e-04  0:03:12 1792
   209  2.3831e-03  2.9938e-03  7.3427e-04  1.9645e-01  2.3814e-03  8.6919e-04  4.3442e-04  0:02:33 1791

  iter  continuity  x-velocity  y-velocity  z-velocity      energy           k       omega     time/iter
   210  2.5059e-03  2.9999e-03  7.4045e-04  1.9606e-01  2.5041e-03  8.5828e-04  4.2341e-04  0:02:03 1790
   211  2.6048e-03  3.0011e-03  7.4774e-04  1.9340e-01  2.6030e-03  8.4637e-04  4.1258e-04  0:01:38 1789
   212  2.6795e-03  2.9976e-03  7.5496e-04  1.8860e-01  2.6777e-03  8.3297e-04  4.0226e-04  0:01:18 1788
   213  2.7301e-03  2.9897e-03  7.6106e-04  1.8225e-01  2.7283e-03  8.1833e-04  3.9221e-04  0:01:03 1787
   214  2.7569e-03  2.9776e-03  7.6522e-04  1.7437e-01  2.7550e-03  8.0267e-04  3.8171e-04  0:00:50 1786
   215  2.7604e-03  2.9621e-03  7.6674e-04  1.6478e-01  2.7586e-03  7.8632e-04  3.7409e-04  0:00:40 1785
   216  2.7418e-03  2.9440e-03  7.6511e-04  1.5384e-01  2.7400e-03  7.6981e-04  3.6799e-04  0:00:32 1784
   217  2.7023e-03  2.9240e-03  7.5999e-04  1.4226e-01  2.7005e-03  7.5371e-04  3.6205e-04  0:00:26 1783
   218  2.6432e-03  2.9026e-03  7.5117e-04  1.3056e-01  2.6414e-03  7.3601e-04  3.5976e-04  0:06:17 1782
   219  2.5659e-03  2.8809e-03  7.3858e-04  1.1849e-01  2.5641e-03  7.1814e-04  3.5837e-04  0:05:01 1781
   220  2.4718e-03  2.8595e-03  7.2229e-04  1.0552e-01  2.4701e-03  6.9971e-04  3.5189e-04  0:04:01 1780

  iter  continuity  x-velocity  y-velocity  z-velocity      energy           k       omega     time/iter
   221  2.3631e-03  2.8394e-03  7.0248e-04  9.2673e-02  2.3614e-03  6.8211e-04  3.4905e-04  0:03:13 1779
   222  2.2417e-03  2.8212e-03  6.7953e-04  8.0886e-02  2.2401e-03  6.6549e-04  3.4682e-04  0:02:34 1778
   223  2.1098e-03  2.8056e-03  6.5392e-04  7.0281e-02  2.1082e-03  6.4946e-04  3.3958e-04  0:02:03 1777
   224  1.9694e-03  2.7928e-03  6.2627e-04  6.1693e-02  1.9678e-03  6.3306e-04  3.3454e-04  0:01:38 1776
   225  1.8229e-03  2.7831e-03  5.9734e-04  5.6383e-02  1.8214e-03  6.1871e-04  3.3216e-04  0:01:19 1775
   226  1.6728e-03  2.7764e-03  5.6801e-04  5.5288e-02  1.6714e-03  6.0549e-04  3.2948e-04  0:01:03 1774
   227  1.5218e-03  2.7722e-03  5.3929e-04  5.8309e-02  1.5204e-03  5.9296e-04  3.2230e-04  0:00:50 1773
   228  1.3731e-03  2.7702e-03  5.1231e-04  6.4495e-02  1.3717e-03  5.8119e-04  3.1619e-04  0:06:35 1772
   229  1.2301e-03  2.7701e-03  4.8832e-04  7.2554e-02  1.2288e-03  5.6911e-04  3.0941e-04  0:05:16 1771
   230  1.0973e-03  2.7715e-03  4.6852e-04  8.1361e-02  1.0961e-03  5.5759e-04  3.0199e-04  0:04:12 1770
   231  9.8006e-04  2.7733e-03  4.5400e-04  9.0307e-02  9.7895e-04  5.4769e-04  2.9398e-04  0:03:22 1769

  iter  continuity  x-velocity  y-velocity  z-velocity      energy           k       omega     time/iter
   232  8.8362e-04  2.7748e-03  4.4542e-04  9.8941e-02  8.8263e-04  5.3871e-04  2.8764e-04  0:02:41 1768
   233  8.1552e-04  2.7749e-03  4.4339e-04  1.0689e-01  8.1469e-04  5.2962e-04  2.8420e-04  0:02:09 1767
   234  7.8005e-04  2.7730e-03  4.4767e-04  1.1406e-01  7.7940e-04  5.2098e-04  2.8210e-04  0:01:43 1766
   235  7.7778e-04  2.7683e-03  4.5766e-04  1.2025e-01  7.7732e-04  5.1324e-04  2.8005e-04  0:01:22 1765
   236  8.0456e-04  2.7602e-03  4.7223e-04  1.2520e-01  8.0427e-04  5.0651e-04  2.7754e-04  0:01:06 1764
   237  8.5298e-04  2.7478e-03  4.9010e-04  1.2897e-01  8.5283e-04  5.0000e-04  2.7467e-04  0:00:53 1763
   238  9.1515e-04  2.7307e-03  5.0995e-04  1.3148e-01  9.1510e-04  4.9503e-04  2.7040e-04  0:00:42 1762
   239  9.8418e-04  2.7083e-03  5.3053e-04  1.3275e-01  9.8420e-04  4.9032e-04  2.6722e-04  0:00:34 1761
   240  1.0547e-03  2.6803e-03  5.5072e-04  1.3282e-01  1.0548e-03  4.8506e-04  2.6395e-04  0:00:27 1760
   241  1.1229e-03  2.6465e-03  5.6958e-04  1.3146e-01  1.1230e-03  4.7983e-04  2.6173e-04  0:06:13 1759
   242  1.1859e-03  2.6066e-03  5.8632e-04  1.2813e-01  1.1860e-03  4.7454e-04  2.6030e-04  0:04:58 1758

  iter  continuity  x-velocity  y-velocity  z-velocity      energy           k       omega     time/iter
   243  1.2417e-03  2.5605e-03  6.0033e-04  1.2390e-01  1.2418e-03  4.6943e-04  2.5816e-04  0:03:59 1757
   244  1.2891e-03  2.5084e-03  6.1107e-04  1.1970e-01  1.2891e-03  4.6439e-04  2.5358e-04  0:03:11 1756
   245  1.3271e-03  2.4503e-03  6.1813e-04  1.1437e-01  1.3271e-03  4.5952e-04  2.5151e-04  0:02:33 1755
   246  1.3553e-03  2.3866e-03  6.2123e-04  1.0801e-01  1.3553e-03  4.5379e-04  2.4949e-04  0:02:02 1754
   247  1.3733e-03  2.3174e-03  6.2018e-04  1.0116e-01  1.3733e-03  4.4740e-04  2.4781e-04  0:01:38 1753
   248  1.3813e-03  2.2435e-03  6.1488e-04  9.3082e-02  1.3813e-03  4.4170e-04  2.4480e-04  0:01:18 1752
   249  1.3794e-03  2.1654e-03  6.0531e-04  8.4879e-02  1.3793e-03  4.3669e-04  2.4401e-04  0:01:02 1751
   250  1.3679e-03  2.0839e-03  5.9152e-04  7.5917e-02  1.3678e-03  4.3225e-04  2.4131e-04  0:00:50 1750
   251  1.3474e-03  1.9997e-03  5.7365e-04  6.6898e-02  1.3472e-03  4.2766e-04  2.3997e-04  0:00:40 1749
   252  1.3184e-03  1.9138e-03  5.5191e-04  5.7749e-02  1.3181e-03  4.2190e-04  2.3628e-04  0:00:32 1748
   253  1.2816e-03  1.8272e-03  5.2655e-04  4.8712e-02  1.2813e-03  4.1617e-04  2.3209e-04  0:06:15 1747

  iter  continuity  x-velocity  y-velocity  z-velocity      energy           k       omega     time/iter
   254  1.2380e-03  1.7408e-03  4.9793e-04  4.0375e-02  1.2375e-03  4.1066e-04  2.2583e-04  0:05:00 1746
   255  1.1885e-03  1.6558e-03  4.6646e-04  3.3239e-02  1.1879e-03  4.0542e-04  2.2044e-04  0:04:00 1745
   256  1.1332e-03  1.5735e-03  4.3265e-04  2.8244e-02  1.1326e-03  4.0002e-04  2.1672e-04  0:03:12 1744
   257  1.0749e-03  1.4954e-03  3.9709e-04  2.6447e-02  1.0742e-03  3.9474e-04  2.1374e-04  0:02:33 1743
   258  1.0147e-03  1.4228e-03  3.6044e-04  2.8164e-02  1.0139e-03  3.8898e-04  2.0720e-04  0:02:02 1742
   259  9.5395e-04  1.3570e-03  3.2359e-04  3.2332e-02  9.5305e-04  3.8376e-04  2.0202e-04  0:01:38 1741
   260  8.9427e-04  1.2989e-03  2.8778e-04  3.7786e-02  8.9327e-04  3.7941e-04  1.9836e-04  0:01:18 1740
   261  8.3740e-04  1.2498e-03  2.5454e-04  4.3712e-02  8.3629e-04  3.7528e-04  1.9524e-04  0:01:03 1739
   262  7.8524e-04  1.2105e-03  2.2589e-04  4.9494e-02  7.8404e-04  3.7138e-04  1.9319e-04  0:00:50 1738
   263  7.4015e-04  1.1815e-03  2.0440e-04  5.4928e-02  7.3886e-04  3.6768e-04  1.8926e-04  0:00:40 1737
   264  7.0348e-04  1.1628e-03  1.9269e-04  5.9812e-02  7.0214e-04  3.6406e-04  1.8616e-04  0:00:32 1736

  iter  continuity  x-velocity  y-velocity  z-velocity      energy           k       omega     time/iter
   265  6.7639e-04  1.1543e-03  1.9220e-04  6.3925e-02  6.7502e-04  3.6059e-04  1.8317e-04  0:06:13 1735
   266  6.5988e-04  1.1550e-03  2.0237e-04  6.7306e-02  6.5852e-04  3.5754e-04  1.8179e-04  0:04:58 1734
   267  6.5405e-04  1.1640e-03  2.2084e-04  6.9832e-02  6.5273e-04  3.5523e-04  1.7950e-04  0:03:58 1733
   268  6.5799e-04  1.1796e-03  2.4474e-04  7.1723e-02  6.5675e-04  3.5302e-04  1.7821e-04  0:03:10 1732
   269  6.6995e-04  1.2008e-03  2.7155e-04  7.3007e-02  6.6881e-04  3.5074e-04  1.7797e-04  0:02:32 1731
   270  6.8778e-04  1.2260e-03  2.9937e-04  7.3519e-02  6.8676e-04  3.4879e-04  1.7865e-04  0:02:02 1730
   271  7.0925e-04  1.2539e-03  3.2685e-04  7.3330e-02  7.0835e-04  3.4671e-04  1.7907e-04  0:01:37 1729
   272  7.3222e-04  1.2833e-03  3.5300e-04  7.2557e-02  7.3144e-04  3.4450e-04  1.7934e-04  0:01:18 1728
   273  7.5493e-04  1.3133e-03  3.7715e-04  7.1061e-02  7.5428e-04  3.4382e-04  1.8118e-04  0:01:02 1727
   274  7.7580e-04  1.3430e-03  3.9879e-04  6.8954e-02  7.7525e-04  3.4393e-04  1.8226e-04  0:00:50 1726
   275  7.9359e-04  1.3717e-03  4.1757e-04  6.6282e-02  7.9315e-04  3.4379e-04  1.8253e-04  0:00:40 1725

  iter  continuity  x-velocity  y-velocity  z-velocity      energy           k       omega     time/iter
   276  8.0739e-04  1.3989e-03  4.3318e-04  6.3061e-02  8.0705e-04  3.4396e-04  1.8334e-04  0:00:32 1724
   277  8.1653e-04  1.4241e-03  4.4543e-04  5.9262e-02  8.1627e-04  3.4449e-04  1.8524e-04  0:00:25 1723
   278  8.2050e-04  1.4472e-03  4.5425e-04  5.4883e-02  8.2032e-04  3.4505e-04  1.8720e-04  0:06:05 1722
   279  8.1897e-04  1.4680e-03  4.5960e-04  5.0181e-02  8.1888e-04  3.4565e-04  1.8854e-04  0:04:52 1721
   280  8.1180e-04  1.4863e-03  4.6142e-04  4.5188e-02  8.1177e-04  3.4595e-04  1.8945e-04  0:03:53 1720
   281  7.9899e-04  1.5021e-03  4.5979e-04  3.9896e-02  7.9903e-04  3.4605e-04  1.8981e-04  0:03:06 1719
   282  7.8068e-04  1.5155e-03  4.5479e-04  3.4490e-02  7.8078e-04  3.4628e-04  1.9048e-04  0:02:29 1718
   283  7.5710e-04  1.5264e-03  4.4655e-04  2.9042e-02  7.5726e-04  3.4639e-04  1.9139e-04  0:01:59 1717
   284  7.2860e-04  1.5350e-03  4.3525e-04  2.3614e-02  7.2882e-04  3.4638e-04  1.9230e-04  0:01:35 1716
   285  6.9561e-04  1.5414e-03  4.2110e-04  1.8604e-02  6.9589e-04  3.4624e-04  1.9306e-04  0:01:16 1715
   286  6.5875e-04  1.5458e-03  4.0435e-04  1.4603e-02  6.5908e-04  3.4591e-04  1.9327e-04  0:01:01 1714

  iter  continuity  x-velocity  y-velocity  z-velocity      energy           k       omega     time/iter
   287  6.1865e-04  1.5482e-03  3.8527e-04  1.2596e-02  6.1904e-04  3.4530e-04  1.9137e-04  0:00:49 1713
   288  5.7608e-04  1.5487e-03  3.6423e-04  1.3322e-02  5.7653e-04  3.4461e-04  1.8871e-04  0:00:39 1712
   289  5.3193e-04  1.5475e-03  3.4161e-04  1.6313e-02  5.3243e-04  3.4419e-04  1.8620e-04  0:00:31 1711
   290  4.8723e-04  1.5445e-03  3.1790e-04  2.0368e-02  4.8779e-04  3.4413e-04  1.8444e-04  0:06:07 1710
   291  4.4323e-04  1.5399e-03  2.9359e-04  2.4721e-02  4.4385e-04  3.4410e-04  1.8267e-04  0:04:53 1709
   292  4.0138e-04  1.5337e-03  2.6936e-04  2.9040e-02  4.0207e-04  3.4360e-04  1.8188e-04  0:03:55 1708
   293  3.6345e-04  1.5260e-03  2.4598e-04  3.3137e-02  3.6419e-04  3.4265e-04  1.8145e-04  0:03:08 1707
   294  3.3146e-04  1.5167e-03  2.2440e-04  3.6907e-02  3.3225e-04  3.4125e-04  1.8078e-04  0:02:30 1706
   295  3.0753e-04  1.5059e-03  2.0571e-04  4.0233e-02  3.0834e-04  3.3961e-04  1.8028e-04  0:02:00 1705
   296  2.9339e-04  1.4936e-03  1.9111e-04  4.3248e-02  2.9418e-04  3.3783e-04  1.7818e-04  0:01:36 1704
   297  2.8981e-04  1.4797e-03  1.8175e-04  4.5866e-02  2.9055e-04  3.3581e-04  1.7613e-04  0:01:17 1703

  iter  continuity  x-velocity  y-velocity  z-velocity      energy           k       omega     time/iter
   298  2.9610e-04  1.4642e-03  1.7841e-04  4.8109e-02  2.9677e-04  3.3372e-04  1.7418e-04  0:01:01 1702
   299  3.1036e-04  1.4471e-03  1.8114e-04  4.9973e-02  3.1093e-04  3.3150e-04  1.7371e-04  0:00:49 1701
   300  3.3012e-04  1.4284e-03  1.8925e-04  5.1475e-02  3.3058e-04  3.2922e-04  1.7267e-04  0:00:39 1700
   301  3.5299e-04  1.4080e-03  2.0150e-04  5.2637e-02  3.5335e-04  3.2670e-04  1.7086e-04  0:00:31 1699
   302  3.7678e-04  1.3861e-03  2.1657e-04  5.3411e-02  3.7705e-04  3.2403e-04  1.6937e-04  0:00:25 1698
   303  4.0002e-04  1.3627e-03  2.3325e-04  5.3795e-02  4.0021e-04  3.2116e-04  1.6759e-04  0:05:59 1697
   304  4.2164e-04  1.3379e-03  2.5053e-04  5.3700e-02  4.2176e-04  3.1832e-04  1.6617e-04  0:04:47 1696
   305  4.4076e-04  1.3119e-03  2.6765e-04  5.3218e-02  4.4081e-04  3.1567e-04  1.6503e-04  0:03:50 1695
   306  4.5675e-04  1.2849e-03  2.8401e-04  5.2389e-02  4.5674e-04  3.1286e-04  1.6337e-04  0:03:04 1694
   307  4.6919e-04  1.2568e-03  2.9915e-04  5.1204e-02  4.6912e-04  3.0998e-04  1.6203e-04  0:02:27 1693
   308  4.7785e-04  1.2280e-03  3.1273e-04  4.9681e-02  4.7772e-04  3.0689e-04  1.6017e-04  0:01:57 1692

  iter  continuity  x-velocity  y-velocity  z-velocity      energy           k       omega     time/iter
   309  4.8264e-04  1.1988e-03  3.2452e-04  4.7901e-02  4.8245e-04  3.0375e-04  1.5716e-04  0:01:34 1691
   310  4.8357e-04  1.1694e-03  3.3436e-04  4.5901e-02  4.8332e-04  3.0065e-04  1.5542e-04  0:01:15 1690
   311  4.8072e-04  1.1401e-03  3.4215e-04  4.3693e-02  4.8041e-04  2.9757e-04  1.5396e-04  0:01:00 1689
   312  4.7426e-04  1.1112e-03  3.4779e-04  4.1299e-02  4.7388e-04  2.9430e-04  1.5163e-04  0:00:48 1688
   313  4.6438e-04  1.0830e-03  3.5126e-04  3.8738e-02  4.6393e-04  2.9126e-04  1.4941e-04  0:00:38 1687
   314  4.5150e-04  1.0560e-03  3.5257e-04  3.6022e-02  4.5098e-04  2.8827e-04  1.4760e-04  0:00:31 1686
   315  4.3603e-04  1.0304e-03  3.5177e-04  3.3240e-02  4.3543e-04  2.8487e-04  1.4647e-04  0:06:02 1685
   316  4.1862e-04  1.0066e-03  3.4890e-04  3.0391e-02  4.1794e-04  2.8153e-04  1.4516e-04  0:04:49 1684
   317  3.9986e-04  9.8492e-04  3.4408e-04  2.7558e-02  3.9908e-04  2.7815e-04  1.4354e-04  0:03:51 1683
   318  3.7990e-04  9.6559e-04  3.3748e-04  2.4710e-02  3.7901e-04  2.7461e-04  1.4169e-04  0:03:05 1682
   319  3.5965e-04  9.4880e-04  3.2922e-04  2.1757e-02  3.5865e-04  2.7102e-04  1.4018e-04  0:02:28 1681

  iter  continuity  x-velocity  y-velocity  z-velocity      energy           k       omega     time/iter
   320  3.4009e-04  9.3463e-04  3.1944e-04  1.8884e-02  3.3898e-04  2.6756e-04  1.3849e-04  0:01:58 1680
   321  3.2219e-04  9.2317e-04  3.0834e-04  1.6148e-02  3.2097e-04  2.6400e-04  1.3640e-04  0:01:34 1679
   322  3.0689e-04  9.1439e-04  2.9609e-04  1.3579e-02  3.0556e-04  2.6019e-04  1.3437e-04  0:01:16 1678
   323  2.9507e-04  9.0817e-04  2.8291e-04  1.1286e-02  2.9364e-04  2.5631e-04  1.3275e-04  0:01:00 1677
   324  2.8739e-04  9.0435e-04  2.6903e-04  9.3457e-03  2.8590e-04  2.5232e-04  1.3037e-04  0:00:48 1676
   325  2.8426e-04  9.0272e-04  2.5471e-04  7.9391e-03  2.8273e-04  2.4857e-04  1.2749e-04  0:00:39 1675
   326  2.8563e-04  9.0293e-04  2.4018e-04  7.2072e-03  2.8409e-04  2.4491e-04  1.2402e-04  0:06:06 1674
   327  2.9102e-04  9.0445e-04  2.2572e-04  7.1798e-03  2.8950e-04  2.4122e-04  1.2129e-04  0:04:52 1673
   328  2.9996e-04  9.0741e-04  2.1158e-04  7.7188e-03  2.9849e-04  2.3766e-04  1.1803e-04  0:03:54 1672
   329  3.1152e-04  9.1134e-04  1.9800e-04  8.5910e-03  3.1012e-04  2.3407e-04  1.1527e-04  0:03:07 1671
   330  3.2477e-04  9.1594e-04  1.8524e-04  9.5683e-03  3.2344e-04  2.3044e-04  1.1303e-04  0:02:29 1670

  iter  continuity  x-velocity  y-velocity  z-velocity      energy           k       omega     time/iter
   331  3.3880e-04  9.2089e-04  1.7353e-04  1.0541e-02  3.3756e-04  2.2673e-04  1.1136e-04  0:01:59 1669
   332  3.5284e-04  9.2588e-04  1.6305e-04  1.1419e-02  3.5167e-04  2.2310e-04  1.0986e-04  0:01:36 1668
   333  3.6621e-04  9.3064e-04  1.5395e-04  1.2158e-02  3.6512e-04  2.1966e-04  1.0848e-04  0:01:16 1667
   334  3.7838e-04  9.3498e-04  1.4631e-04  1.2761e-02  3.7735e-04  2.1684e-04  1.0741e-04  0:01:01 1666
   335  3.8892e-04  9.3875e-04  1.4012e-04  1.3220e-02  3.8795e-04  2.1422e-04  1.0666e-04  0:00:49 1665
   336  3.9748e-04  9.4183e-04  1.3530e-04  1.3509e-02  3.9657e-04  2.1168e-04  1.0574e-04  0:00:39 1664
   337  4.0379e-04  9.4404e-04  1.3170e-04  1.3641e-02  4.0293e-04  2.0917e-04  1.0511e-04  0:06:04 1663
   338  4.0772e-04  9.4542e-04  1.2910e-04  1.3637e-02  4.0690e-04  2.0675e-04  1.0413e-04  0:04:51 1662
   339  4.0917e-04  9.4591e-04  1.2725e-04  1.3492e-02  4.0839e-04  2.0444e-04  1.0343e-04  0:03:53 1661
   340  4.0808e-04  9.4547e-04  1.2589e-04  1.3215e-02  4.0733e-04  2.0215e-04  1.0393e-04  0:03:06 1660
   341  4.0448e-04  9.4412e-04  1.2479e-04  1.2817e-02  4.0375e-04  1.9988e-04  1.0420e-04  0:02:29 1659

  iter  continuity  x-velocity  y-velocity  z-velocity      energy           k       omega     time/iter
   342  3.9841e-04  9.4188e-04  1.2377e-04  1.2358e-02  3.9770e-04  1.9795e-04  1.0516e-04  0:01:59 1658
   343  3.8999e-04  9.3878e-04  1.2271e-04  1.1856e-02  3.8929e-04  1.9627e-04  1.0676e-04  0:01:35 1657
   344  3.7937e-04  9.3495e-04  1.2154e-04  1.1287e-02  3.7867e-04  1.9473e-04  1.0820e-04  0:01:16 1656
   345  3.6675e-04  9.3045e-04  1.2028e-04  1.0658e-02  3.6605e-04  1.9319e-04  1.0947e-04  0:01:01 1655
   346  3.5236e-04  9.2539e-04  1.1898e-04  9.9692e-03  3.5165e-04  1.9173e-04  1.1042e-04  0:00:49 1654
   347  3.3646e-04  9.1985e-04  1.1777e-04  9.2214e-03  3.3574e-04  1.9064e-04  1.1074e-04  0:00:39 1653
   348  3.1938e-04  9.1393e-04  1.1686e-04  8.4410e-03  3.1864e-04  1.8996e-04  1.1080e-04  0:00:31 1652
   349  3.0145e-04  9.0773e-04  1.1650e-04  7.6542e-03  3.0068e-04  1.8963e-04  1.1138e-04  0:05:55 1651
   350  2.8308e-04  9.0136e-04  1.1693e-04  6.9027e-03  2.8227e-04  1.8962e-04  1.1101e-04  0:04:44 1650
   351  2.6467e-04  8.9484e-04  1.1847e-04  6.2175e-03  2.6380e-04  1.8971e-04  1.1089e-04  0:03:47 1649
   352  2.4673e-04  8.8832e-04  1.2128e-04  5.6375e-03  2.4581e-04  1.8986e-04  1.0978e-04  0:03:01 1648

  iter  continuity  x-velocity  y-velocity  z-velocity      energy           k       omega     time/iter
   353  2.2981e-04  8.8177e-04  1.2556e-04  5.2122e-03  2.2882e-04  1.9008e-04  1.0836e-04  0:02:25 1647
   354  2.1447e-04  8.7521e-04  1.3136e-04  4.9913e-03  2.1341e-04  1.9027e-04  1.0694e-04  0:01:56 1646
   355  2.0129e-04  8.6865e-04  1.3866e-04  4.9698e-03  2.0016e-04  1.9072e-04  1.0588e-04  0:01:33 1645
   356  1.9081e-04  8.6208e-04  1.4735e-04  5.1278e-03  1.8961e-04  1.9157e-04  1.0527e-04  0:01:14 1644
   357  1.8344e-04  8.5549e-04  1.5725e-04  5.4320e-03  1.8218e-04  1.9234e-04  1.0466e-04  0:00:59 1643
   358  1.7939e-04  8.4886e-04  1.6813e-04  5.8173e-03  1.7808e-04  1.9301e-04  1.0409e-04  0:00:47 1642
   359  1.7857e-04  8.4215e-04  1.7977e-04  6.2287e-03  1.7724e-04  1.9366e-04  1.0354e-04  0:00:38 1641
   360  1.8063e-04  8.3533e-04  1.9194e-04  6.6222e-03  1.7930e-04  1.9436e-04  1.0295e-04  0:00:30 1640
   361  1.8503e-04  8.2837e-04  2.0441e-04  6.9611e-03  1.8371e-04  1.9512e-04  1.0241e-04  0:05:52 1639
   362  1.9112e-04  8.2125e-04  2.1698e-04  7.2285e-03  1.8982e-04  1.9605e-04  1.0188e-04  0:04:41 1638
   363  1.9824e-04  8.1393e-04  2.2945e-04  7.4241e-03  1.9697e-04  1.9686e-04  1.0119e-04  0:03:45 1637

  iter  continuity  x-velocity  y-velocity  z-velocity      energy           k       omega     time/iter
   364  2.0583e-04  8.0642e-04  2.4166e-04  7.5427e-03  2.0458e-04  1.9751e-04  1.0066e-04  0:03:00 1636
   365  2.1338e-04  7.9868e-04  2.5344e-04  7.5836e-03  2.1215e-04  1.9810e-04  9.9921e-05  0:02:24 1635
   366  2.2050e-04  7.9065e-04  2.6464e-04  7.5380e-03  2.1929e-04  1.9859e-04  9.8928e-05  0:01:55 1634
   367  2.2690e-04  7.8238e-04  2.7513e-04  7.4113e-03  2.2571e-04  1.9901e-04  9.8169e-05  0:01:32 1633
   368  2.3237e-04  7.7390e-04  2.8481e-04  7.2061e-03  2.3117e-04  1.9940e-04  9.7573e-05  0:01:14 1632
   369  2.3675e-04  7.6524e-04  2.9358e-04  6.9250e-03  2.3555e-04  1.9975e-04  9.7019e-05  0:00:59 1631
   370  2.3996e-04  7.5644e-04  3.0136e-04  6.5755e-03  2.3876e-04  1.9986e-04  9.6570e-05  0:00:47 1630
   371  2.4199e-04  7.4753e-04  3.0809e-04  6.1592e-03  2.4077e-04  1.9980e-04  9.6249e-05  0:00:38 1629
   372  2.4284e-04  7.3855e-04  3.1373e-04  5.6926e-03  2.4160e-04  1.9958e-04  9.5787e-05  0:00:30 1628
   373  2.4258e-04  7.2954e-04  3.1822e-04  5.1874e-03  2.4131e-04  1.9928e-04  9.5312e-05  0:00:24 1627
   374  2.4130e-04  7.2056e-04  3.2157e-04  4.6562e-03  2.4000e-04  1.9890e-04  9.4820e-05  0:05:44 1626

  iter  continuity  x-velocity  y-velocity  z-velocity      energy           k       omega     time/iter
   375  2.3913e-04  7.1163e-04  3.2375e-04  4.1330e-03  2.3780e-04  1.9807e-04  9.4408e-05  0:04:35 1625
   376  2.3622e-04  7.0281e-04  3.2479e-04  3.6514e-03  2.3485e-04  1.9700e-04  9.4176e-05  0:03:40 1624
   377  2.3276e-04  6.9415e-04  3.2470e-04  3.2526e-03  2.3135e-04  1.9566e-04  9.3993e-05  0:02:56 1623
   378  2.2896e-04  6.8568e-04  3.2352e-04  2.9982e-03  2.2749e-04  1.9413e-04  9.3679e-05  0:02:21 1622
   379  2.2501e-04  6.7741e-04  3.2130e-04  2.9442e-03  2.2350e-04  1.9269e-04  9.3324e-05  0:01:53 1621
   380  2.2115e-04  6.6937e-04  3.1808e-04  3.1013e-03  2.1960e-04  1.9121e-04  9.2697e-05  0:01:30 1620
   381  2.1760e-04  6.6159e-04  3.1394e-04  3.4351e-03  2.1600e-04  1.8957e-04  9.2184e-05  0:01:12 1619
   382  2.1453e-04  6.5406e-04  3.0895e-04  3.8785e-03  2.1290e-04  1.8763e-04  9.1771e-05  0:00:57 1618
   383  2.1252e-04  6.4678e-04  3.0314e-04  4.3785e-03  2.1086e-04  1.8586e-04  9.1256e-05  0:00:46 1617
   384  2.1168e-04  6.3985e-04  2.9663e-04  4.9007e-03  2.1000e-04  1.8410e-04  9.0562e-05  0:00:37 1616
   385  2.1110e-04  6.3312e-04  2.8958e-04  5.4143e-03  2.0941e-04  1.8247e-04  8.9543e-05  0:00:29 1615

  iter  continuity  x-velocity  y-velocity  z-velocity      energy           k       omega     time/iter
   386  2.1107e-04  6.2655e-04  2.8204e-04  5.9024e-03  2.0938e-04  1.8073e-04  8.8368e-05  0:05:46 1614
   387  2.1183e-04  6.2010e-04  2.7409e-04  6.3450e-03  2.1014e-04  1.7886e-04  8.7020e-05  0:04:37 1613
   388  2.1338e-04  6.1374e-04  2.6583e-04  6.7339e-03  2.1171e-04  1.7693e-04  8.5676e-05  0:03:41 1612
   389  2.1563e-04  6.0741e-04  2.5737e-04  7.0616e-03  2.1398e-04  1.7464e-04  8.4332e-05  0:02:57 1611
   390  2.1839e-04  6.0106e-04  2.4878e-04  7.3234e-03  2.1677e-04  1.7229e-04  8.2948e-05  0:02:21 1610
   391  2.2146e-04  5.9464e-04  2.4016e-04  7.5083e-03  2.1988e-04  1.6990e-04  8.1569e-05  0:01:53 1609
   392  2.2465e-04  5.8813e-04  2.3160e-04  7.6244e-03  2.2311e-04  1.6752e-04  8.0149e-05  0:01:30 1608
   393  2.2776e-04  5.8147e-04  2.2318e-04  7.6771e-03  2.2626e-04  1.6525e-04  7.8648e-05  0:01:12 1607
   394  2.3062e-04  5.7463e-04  2.1496e-04  7.6631e-03  2.2916e-04  1.6293e-04  7.7169e-05  0:00:58 1606
   395  2.3308e-04  5.6759e-04  2.0702e-04  7.5849e-03  2.3166e-04  1.6068e-04  7.5934e-05  0:00:46 1605
   396  2.3501e-04  5.6035e-04  1.9942e-04  7.4439e-03  2.3362e-04  1.5838e-04  7.4934e-05  0:00:37 1604

  iter  continuity  x-velocity  y-velocity  z-velocity      energy           k       omega     time/iter
   397  2.3628e-04  5.5291e-04  1.9220e-04  7.2409e-03  2.3493e-04  1.5602e-04  7.3922e-05  0:00:30 1603
   398  2.3681e-04  5.4527e-04  1.8542e-04  6.9751e-03  2.3549e-04  1.5358e-04  7.3019e-05  0:05:44 1602
   399  2.3655e-04  5.3745e-04  1.7910e-04  6.6545e-03  2.3526e-04  1.5111e-04  7.2254e-05  0:04:35 1601
   400  2.3544e-04  5.2949e-04  1.7327e-04  6.2796e-03  2.3417e-04  1.4862e-04  7.1558e-05  0:03:40 1600
   401  2.3348e-04  5.2141e-04  1.6796e-04  5.8633e-03  2.3223e-04  1.4610e-04  7.0930e-05  0:02:56 1599
   402  2.3067e-04  5.1322e-04  1.6316e-04  5.4093e-03  2.2943e-04  1.4360e-04  7.0157e-05  0:02:21 1598
   403  2.2702e-04  5.0498e-04  1.5890e-04  4.9317e-03  2.2580e-04  1.4105e-04  6.9641e-05  0:01:52 1597
   404  2.2259e-04  4.9675e-04  1.5518e-04  4.4351e-03  2.2138e-04  1.3844e-04  6.9430e-05  0:01:30 1596
   405  2.1745e-04  4.8857e-04  1.5200e-04  3.9304e-03  2.1624e-04  1.3578e-04  6.8873e-05  0:01:12 1595
   406  2.1166e-04  4.8050e-04  1.4937e-04  3.4270e-03  2.1045e-04  1.3315e-04  6.8281e-05  0:00:57 1594
   407  2.0532e-04  4.7259e-04  1.4729e-04  2.9604e-03  2.0411e-04  1.3054e-04  6.7702e-05  0:00:46 1593

  iter  continuity  x-velocity  y-velocity  z-velocity      energy           k       omega     time/iter
   408  1.9857e-04  4.6486e-04  1.4576e-04  2.5485e-03  1.9734e-04  1.2803e-04  6.6939e-05  0:00:37 1592
   409  1.9151e-04  4.5739e-04  1.4478e-04  2.2162e-03  1.9028e-04  1.2565e-04  6.6007e-05  0:00:29 1591
   410  1.8431e-04  4.5019e-04  1.4436e-04  2.0125e-03  1.8307e-04  1.2328e-04  6.5227e-05  0:00:23 1590
   411  1.7712e-04  4.4332e-04  1.4449e-04  1.9635e-03  1.7586e-04  1.2107e-04  6.4492e-05  0:05:37 1589
   412  1.7009e-04  4.3678e-04  1.4517e-04  2.0793e-03  1.6881e-04  1.1901e-04  6.3752e-05  0:04:29 1588
   413  1.6339e-04  4.3059e-04  1.4638e-04  2.3201e-03  1.6209e-04  1.1709e-04  6.3021e-05  0:03:35 1587
   414  1.5718e-04  4.2476e-04  1.4810e-04  2.6332e-03  1.5587e-04  1.1521e-04  6.2283e-05  0:02:52 1586
   415  1.5162e-04  4.1927e-04  1.5029e-04  2.9784e-03  1.5028e-04  1.1340e-04  6.1491e-05  0:02:18 1585
   416  1.4682e-04  4.1413e-04  1.5293e-04  3.3274e-03  1.4548e-04  1.1170e-04  6.0633e-05  0:01:50 1584
   417  1.4288e-04  4.0930e-04  1.5597e-04  3.6622e-03  1.4153e-04  1.0998e-04  5.9670e-05  0:01:28 1583
   418  1.3987e-04  4.0476e-04  1.5935e-04  3.9701e-03  1.3852e-04  1.0829e-04  5.8674e-05  0:01:10 1582

  iter  continuity  x-velocity  y-velocity  z-velocity      energy           k       omega     time/iter
   419  1.3779e-04  4.0049e-04  1.6302e-04  4.2407e-03  1.3645e-04  1.0667e-04  5.7611e-05  0:00:56 1581
   420  1.3660e-04  3.9643e-04  1.6691e-04  4.4672e-03  1.3527e-04  1.0513e-04  5.6526e-05  0:00:45 1580
   421  1.3621e-04  3.9255e-04  1.7096e-04  4.6434e-03  1.3490e-04  1.0367e-04  5.5486e-05  0:00:36 1579
   422  1.3651e-04  3.8883e-04  1.7511e-04  4.7673e-03  1.3522e-04  1.0225e-04  5.4548e-05  0:00:29 1578
   423  1.3735e-04  3.8522e-04  1.7929e-04  4.8375e-03  1.3608e-04  1.0095e-04  5.3636e-05  0:05:38 1577
   424  1.3858e-04  3.8170e-04  1.8343e-04  4.8551e-03  1.3733e-04  9.9574e-05  5.2734e-05  0:04:31 1576
   425  1.4004e-04  3.7823e-04  1.8749e-04  4.8159e-03  1.3882e-04  9.8235e-05  5.1797e-05  0:03:36 1575
   426  1.4160e-04  3.7479e-04  1.9139e-04  4.7270e-03  1.4039e-04  9.6955e-05  5.0869e-05  0:02:53 1574
   427  1.4313e-04  3.7137e-04  1.9509e-04  4.5926e-03  1.4194e-04  9.5694e-05  4.9953e-05  0:02:18 1573
   428  1.4455e-04  3.6793e-04  1.9853e-04  4.4184e-03  1.4337e-04  9.4466e-05  4.9061e-05  0:01:51 1572
   429  1.4576e-04  3.6448e-04  2.0168e-04  4.2099e-03  1.4459e-04  9.3305e-05  4.8229e-05  0:01:28 1571

  iter  continuity  x-velocity  y-velocity  z-velocity      energy           k       omega     time/iter
   430  1.4673e-04  3.6101e-04  2.0450e-04  3.9716e-03  1.4556e-04  9.2143e-05  4.7480e-05  0:01:11 1570
   431  1.4741e-04  3.5752e-04  2.0695e-04  3.7094e-03  1.4624e-04  9.0986e-05  4.6835e-05  0:00:56 1569
   432  1.4781e-04  3.5401e-04  2.0901e-04  3.4275e-03  1.4662e-04  8.9877e-05  4.6266e-05  0:05:59 1568
   433  1.4793e-04  3.5046e-04  2.1066e-04  3.1358e-03  1.4674e-04  8.8769e-05  4.5734e-05  0:04:47 1567
   434  1.4783e-04  3.4693e-04  2.1189e-04  2.8433e-03  1.4662e-04  8.7662e-05  4.5217e-05  0:03:49 1566
   435  1.4756e-04  3.4343e-04  2.1268e-04  2.5661e-03  1.4632e-04  8.6542e-05  4.4829e-05  0:03:03 1565
   436  1.4717e-04  3.3995e-04  2.1303e-04  2.3233e-03  1.4591e-04  8.5420e-05  4.4513e-05  0:02:27 1564
   437  1.4672e-04  3.3651e-04  2.1294e-04  2.1350e-03  1.4544e-04  8.4215e-05  4.4236e-05  0:01:57 1563
   438  1.4629e-04  3.3313e-04  2.1243e-04  2.0247e-03  1.4498e-04  8.2962e-05  4.3982e-05  0:01:34 1562
   439  1.4594e-04  3.2980e-04  2.1150e-04  2.0108e-03  1.4461e-04  8.1688e-05  4.3795e-05  0:01:15 1561
   440  1.4575e-04  3.2654e-04  2.1018e-04  2.0966e-03  1.4440e-04  8.0355e-05  4.3575e-05  0:01:00 1560

  iter  continuity  x-velocity  y-velocity  z-velocity      energy           k       omega     time/iter
   441  1.4578e-04  3.2335e-04  2.0848e-04  2.2672e-03  1.4441e-04  7.8988e-05  4.3304e-05  0:00:48 1559
   442  1.4611e-04  3.2019e-04  2.0642e-04  2.5060e-03  1.4471e-04  7.7677e-05  4.3005e-05  0:00:38 1558
   443  1.4715e-04  3.1696e-04  2.0406e-04  2.7866e-03  1.4575e-04  7.6319e-05  4.2646e-05  0:00:31 1557
   444  1.4825e-04  3.1404e-04  2.0137e-04  3.0795e-03  1.4684e-04  7.4996e-05  4.2246e-05  0:00:24 1556
   445  1.4940e-04  3.1119e-04  1.9841e-04  3.3720e-03  1.4799e-04  7.3691e-05  4.1764e-05  0:05:31 1555
   446  1.5072e-04  3.0832e-04  1.9523e-04  3.6543e-03  1.4931e-04  7.2358e-05  4.1251e-05  0:04:24 1554
   447  1.5226e-04  3.0548e-04  1.9186e-04  3.9192e-03  1.5085e-04  7.1028e-05  4.0689e-05  0:03:31 1553
   448  1.5396e-04  3.0267e-04  1.8834e-04  4.1634e-03  1.5256e-04  6.9719e-05  4.0058e-05  0:02:49 1552
   449  1.5576e-04  2.9987e-04  1.8471e-04  4.3824e-03  1.5438e-04  6.8466e-05  3.9385e-05  0:02:15 1551
   450  1.5757e-04  2.9703e-04  1.8099e-04  4.5733e-03  1.5621e-04  6.7206e-05  3.8705e-05  0:01:48 1550
   451  1.5930e-04  2.9420e-04  1.7721e-04  4.7311e-03  1.5796e-04  6.5990e-05  3.8020e-05  0:01:26 1549

  iter  continuity  x-velocity  y-velocity  z-velocity      energy           k       omega     time/iter
   452  1.6086e-04  2.9133e-04  1.7341e-04  4.8593e-03  1.5954e-04  6.4849e-05  3.7290e-05  0:01:09 1548
   453  1.6214e-04  2.8843e-04  1.6962e-04  4.9565e-03  1.6084e-04  6.3719e-05  3.6506e-05  0:00:55 1547
   454  1.6308e-04  2.8551e-04  1.6585e-04  5.0211e-03  1.6181e-04  6.2597e-05  3.5716e-05  0:00:44 1546
   455  1.6360e-04  2.8256e-04  1.6214e-04  5.0597e-03  1.6236e-04  6.1463e-05  3.4968e-05  0:00:35 1545
   456  1.6366e-04  2.7960e-04  1.5851e-04  5.0710e-03  1.6244e-04  6.0311e-05  3.4285e-05  0:05:37 1544
   457  1.6321e-04  2.7665e-04  1.5499e-04  5.0531e-03  1.6201e-04  5.9180e-05  3.3649e-05  0:04:29 1543
   458  1.6222e-04  2.7370e-04  1.5158e-04  5.0061e-03  1.6104e-04  5.8077e-05  3.3042e-05  0:03:35 1542
   459  1.6067e-04  2.7078e-04  1.4830e-04  4.9314e-03  1.5951e-04  5.6964e-05  3.2450e-05  0:02:52 1541
   460  1.5854e-04  2.6790e-04  1.4517e-04  4.8291e-03  1.5740e-04  5.5834e-05  3.1865e-05  0:02:18 1540
   461  1.5585e-04  2.6507e-04  1.4220e-04  4.7063e-03  1.5474e-04  5.4679e-05  3.1288e-05  0:01:50 1539
   462  1.5271e-04  2.6229e-04  1.3937e-04  4.5668e-03  1.5161e-04  5.3506e-05  3.0687e-05  0:01:28 1538

  iter  continuity  x-velocity  y-velocity  z-velocity      energy           k       omega     time/iter
   463  1.4899e-04  2.5961e-04  1.3671e-04  4.4075e-03  1.4790e-04  5.2323e-05  3.0078e-05  0:01:10 1537
   464  1.4472e-04  2.5703e-04  1.3421e-04  4.2294e-03  1.4365e-04  5.1142e-05  2.9517e-05  0:00:56 1536
   465  1.3998e-04  2.5456e-04  1.3187e-04  4.0357e-03  1.3892e-04  4.9981e-05  2.9006e-05  0:00:45 1535
   466  1.3484e-04  2.5221e-04  1.2969e-04  3.8287e-03  1.3380e-04  4.8823e-05  2.8614e-05  0:00:36 1534
   467  1.2940e-04  2.4996e-04  1.2765e-04  3.6111e-03  1.2836e-04  4.7726e-05  2.8231e-05  0:00:29 1533
   468  1.2372e-04  2.4783e-04  1.2577e-04  3.3882e-03  1.2269e-04  4.6642e-05  2.7828e-05  0:05:29 1532
   469  1.1789e-04  2.4580e-04  1.2404e-04  3.1586e-03  1.1687e-04  4.5617e-05  2.7415e-05  0:04:23 1531
   470  1.1201e-04  2.4386e-04  1.2245e-04  2.9249e-03  1.1099e-04  4.4657e-05  2.6996e-05  0:03:31 1530
   471  1.0617e-04  2.4200e-04  1.2101e-04  2.6950e-03  1.0516e-04  4.3737e-05  2.6572e-05  0:02:48 1529
   472  1.0049e-04  2.4020e-04  1.1971e-04  2.4700e-03  9.9478e-05  4.2872e-05  2.6157e-05  0:02:15 1528
   473  9.5065e-05  2.3845e-04  1.1854e-04  2.2538e-03  9.4058e-05  4.2053e-05  2.5737e-05  0:01:48 1527

  iter  continuity  x-velocity  y-velocity  z-velocity      energy           k       omega     time/iter
   474  9.0017e-05  2.3673e-04  1.1751e-04  2.0517e-03  8.9015e-05  4.1269e-05  2.5348e-05  0:01:26 1526
   475  8.5451e-05  2.3502e-04  1.1662e-04  1.8688e-03  8.4457e-05  4.0523e-05  2.4976e-05  0:01:09 1525
   476  8.1466e-05  2.3328e-04  1.1584e-04  1.7065e-03  8.0481e-05  3.9811e-05  2.4596e-05  0:00:55 1524
   477  7.8135e-05  2.3151e-04  1.1519e-04  1.5720e-03  7.7166e-05  3.9160e-05  2.4202e-05  0:00:44 1523
   478  7.5506e-05  2.2968e-04  1.1466e-04  1.4700e-03  7.4559e-05  3.8584e-05  2.3795e-05  0:00:35 1522
   479  7.3589e-05  2.2778e-04  1.1423e-04  1.3995e-03  7.2669e-05  3.8053e-05  2.3386e-05  0:00:28 1521
   480  7.2354e-05  2.2580e-04  1.1390e-04  1.3589e-03  7.1465e-05  3.7557e-05  2.2963e-05  0:05:26 1520
   481  7.1736e-05  2.2372e-04  1.1366e-04  1.3425e-03  7.0882e-05  3.7090e-05  2.2517e-05  0:04:21 1519
   482  7.1638e-05  2.2154e-04  1.1350e-04  1.3467e-03  7.0821e-05  3.6664e-05  2.2059e-05  0:03:29 1518
   483  7.1945e-05  2.1925e-04  1.1341e-04  1.3675e-03  7.1164e-05  3.6270e-05  2.1595e-05  0:02:47 1517
   484  7.2540e-05  2.1686e-04  1.1337e-04  1.3990e-03  7.1794e-05  3.5887e-05  2.1145e-05  0:02:13 1516

  iter  continuity  x-velocity  y-velocity  z-velocity      energy           k       omega     time/iter
   485  7.3309e-05  2.1436e-04  1.1337e-04  1.4345e-03  7.2594e-05  3.5509e-05  2.0732e-05  0:01:47 1515
   486  7.4149e-05  2.1177e-04  1.1340e-04  1.4698e-03  7.3461e-05  3.5143e-05  2.0348e-05  0:01:25 1514
   487  7.4974e-05  2.0910e-04  1.1343e-04  1.5015e-03  7.4308e-05  3.4768e-05  1.9993e-05  0:01:08 1513
   488  7.5719e-05  2.0636e-04  1.1346e-04  1.5266e-03  7.5069e-05  3.4383e-05  1.9630e-05  0:00:54 1512
   489  7.6336e-05  2.0356e-04  1.1347e-04  1.5440e-03  7.5699e-05  3.3988e-05  1.9251e-05  0:00:44 1511
   490  7.6798e-05  2.0073e-04  1.1345e-04  1.5536e-03  7.6168e-05  3.3594e-05  1.8929e-05  0:00:35 1510
   491  7.7094e-05  1.9787e-04  1.1338e-04  1.5554e-03  7.6466e-05  3.3219e-05  1.8625e-05  0:00:28 1509
   492  7.7228e-05  1.9501e-04  1.1326e-04  1.5507e-03  7.6597e-05  3.2864e-05  1.8343e-05  0:05:24 1508
   493  7.7216e-05  1.9217e-04  1.1307e-04  1.5400e-03  7.6580e-05  3.2501e-05  1.8078e-05  0:04:19 1507
   494  7.7088e-05  1.8936e-04  1.1280e-04  1.5257e-03  7.6443e-05  3.2157e-05  1.7770e-05  0:03:27 1506
   495  7.6882e-05  1.8660e-04  1.1244e-04  1.5086e-03  7.6224e-05  3.1789e-05  1.7505e-05  0:02:45 1505

  iter  continuity  x-velocity  y-velocity  z-velocity      energy           k       omega     time/iter
   496  7.6640e-05  1.8391e-04  1.1199e-04  1.4892e-03  7.5967e-05  3.1420e-05  1.7284e-05  0:02:12 1504
   497  7.6409e-05  1.8130e-04  1.1145e-04  1.4700e-03  7.5720e-05  3.1058e-05  1.7098e-05  0:01:46 1503
   498  7.6237e-05  1.7877e-04  1.1081e-04  1.4517e-03  7.5531e-05  3.0699e-05  1.6953e-05  0:01:25 1502
   499  7.6167e-05  1.7633e-04  1.1007e-04  1.4363e-03  7.5445e-05  3.0331e-05  1.6802e-05  0:01:08 1501
   500  7.6238e-05  1.7400e-04  1.0922e-04  1.4243e-03  7.5500e-05  2.9947e-05  1.6667e-05  0:00:54 1500
   501  7.6476e-05  1.7177e-04  1.0828e-04  1.4189e-03  7.5724e-05  2.9557e-05  1.6524e-05  0:00:43 1499
   502  7.6899e-05  1.6964e-04  1.0725e-04  1.4213e-03  7.6135e-05  2.9175e-05  1.6380e-05  0:00:35 1498
   503  7.7510e-05  1.6760e-04  1.0613e-04  1.4294e-03  7.6737e-05  2.8806e-05  1.6228e-05  0:05:27 1497
   504  7.8299e-05  1.6567e-04  1.0492e-04  1.4424e-03  7.7520e-05  2.8392e-05  1.6078e-05  0:04:21 1496
   505  7.9244e-05  1.6382e-04  1.0363e-04  1.4599e-03  7.8462e-05  2.7944e-05  1.5928e-05  0:03:29 1495
   506  8.0313e-05  1.6207e-04  1.0228e-04  1.4772e-03  7.9531e-05  2.7491e-05  1.5773e-05  0:02:47 1494

  iter  continuity  x-velocity  y-velocity  z-velocity      energy           k       omega     time/iter
   507  8.1465e-05  1.6039e-04  1.0086e-04  1.4940e-03  8.0685e-05  2.7043e-05  1.5598e-05  0:02:14 1493
   508  8.2652e-05  1.5877e-04  9.9398e-05  1.5100e-03  8.1877e-05  2.6592e-05  1.5404e-05  0:01:47 1492
   509  8.3826e-05  1.5723e-04  9.7887e-05  1.5239e-03  8.3058e-05  2.6138e-05  1.5198e-05  0:01:25 1491
   510  8.4936e-05  1.5576e-04  9.6343e-05  1.5342e-03  8.4177e-05  2.5698e-05  1.4965e-05  0:01:08 1490
   511  8.5932e-05  1.5436e-04  9.4774e-05  1.5374e-03  8.5184e-05  2.5265e-05  1.4725e-05  0:00:55 1489
   512  8.6771e-05  1.5302e-04  9.3189e-05  1.5340e-03  8.6034e-05  2.4848e-05  1.4496e-05  0:00:44 1488
   513  8.7410e-05  1.5175e-04  9.1597e-05  1.5243e-03  8.6685e-05  2.4425e-05  1.4262e-05  0:00:35 1487
   514  8.7814e-05  1.5054e-04  9.0005e-05  1.5067e-03  8.7102e-05  2.3987e-05  1.4021e-05  0:00:28 1486
   515  8.7953e-05  1.4939e-04  8.8420e-05  1.4810e-03  8.7253e-05  2.3558e-05  1.3785e-05  0:05:19 1485
   516  8.7802e-05  1.4831e-04  8.6849e-05  1.4481e-03  8.7115e-05  2.3143e-05  1.3535e-05  0:04:15 1484
   517  8.7344e-05  1.4729e-04  8.5296e-05  1.4080e-03  8.6671e-05  2.2731e-05  1.3287e-05  0:03:24 1483

  iter  continuity  x-velocity  y-velocity  z-velocity      energy           k       omega     time/iter
   518  8.6569e-05  1.4635e-04  8.3768e-05  1.3589e-03  8.5908e-05  2.2311e-05  1.3041e-05  0:02:43 1482
   519  8.5471e-05  1.4548e-04  8.2266e-05  1.3022e-03  8.4823e-05  2.1886e-05  1.2788e-05  0:02:10 1481
   520  8.4053e-05  1.4469e-04  8.0795e-05  1.2378e-03  8.3418e-05  2.1471e-05  1.2573e-05  0:01:44 1480
   521  8.2324e-05  1.4397e-04  7.9356e-05  1.1664e-03  8.1700e-05  2.1052e-05  1.2349e-05  0:01:23 1479
   522  8.0296e-05  1.4332e-04  7.7950e-05  1.0894e-03  7.9684e-05  2.0630e-05  1.2121e-05  0:01:07 1478
   523  7.7990e-05  1.4274e-04  7.6579e-05  1.0075e-03  7.7388e-05  2.0221e-05  1.1888e-05  0:00:53 1477
   524  7.5430e-05  1.4222e-04  7.5241e-05  9.2168e-04  7.4838e-05  1.9834e-05  1.1651e-05  0:00:43 1476
   525  7.2645e-05  1.4175e-04  7.3938e-05  8.3557e-04  7.2062e-05  1.9459e-05  1.1414e-05  0:00:34 1475
   526  6.9671e-05  1.4132e-04  7.2668e-05  7.5191e-04  6.9096e-05  1.9102e-05  1.1176e-05  0:00:27 1474
   527  6.6545e-05  1.4093e-04  7.1432e-05  6.7602e-04  6.5979e-05  1.8744e-05  1.0945e-05  0:05:16 1473
   528  6.3312e-05  1.4057e-04  7.0228e-05  6.1550e-04  6.2752e-05  1.8386e-05  1.0738e-05  0:04:13 1472

  iter  continuity  x-velocity  y-velocity  z-velocity      energy           k       omega     time/iter
   529  6.0015e-05  1.4021e-04  6.9057e-05  5.7859e-04  5.9461e-05  1.8038e-05  1.0533e-05  0:03:22 1471
   530  5.6707e-05  1.3985e-04  6.7918e-05  5.6950e-04  5.6158e-05  1.7714e-05  1.0327e-05  0:02:42 1470
   531  5.3440e-05  1.3947e-04  6.6813e-05  5.8796e-04  5.2895e-05  1.7406e-05  1.0129e-05  0:02:09 1469
   532  5.0268e-05  1.3907e-04  6.5741e-05  6.2875e-04  4.9728e-05  1.7097e-05  9.9539e-06  0:01:43 1468
   533  4.7250e-05  1.3862e-04  6.4704e-05  6.8460e-04  4.6714e-05  1.6790e-05  9.7814e-06  0:01:23 1467
   534  4.4441e-05  1.3811e-04  6.3704e-05  7.4762e-04  4.3910e-05  1.6492e-05  9.5955e-06  0:01:06 1466
   535  4.1896e-05  1.3755e-04  6.2742e-05  8.1342e-04  4.1370e-05  1.6205e-05  9.3953e-06  0:00:53 1465
   536  3.9664e-05  1.3691e-04  6.1821e-05  8.7837e-04  3.9145e-05  1.5955e-05  9.2023e-06  0:00:42 1464
   537  3.7782e-05  1.3619e-04  6.0942e-05  9.3974e-04  3.7273e-05  1.5750e-05  9.0057e-06  0:00:34 1463
   538  3.6275e-05  1.3539e-04  6.0108e-05  9.9571e-04  3.5779e-05  1.5560e-05  8.8147e-06  0:05:19 1462
   539  3.5147e-05  1.3450e-04  5.9320e-05  1.0442e-03  3.4666e-05  1.5399e-05  8.6326e-06  0:04:15 1461

  iter  continuity  x-velocity  y-velocity  z-velocity      energy           k       omega     time/iter
   540  3.4383e-05  1.3353e-04  5.8582e-05  1.0840e-03  3.3920e-05  1.5277e-05  8.4709e-06  0:03:24 1460
   541  3.3948e-05  1.3248e-04  5.7893e-05  1.1141e-03  3.3504e-05  1.5175e-05  8.3304e-06  0:02:43 1459
   542  3.3792e-05  1.3135e-04  5.7255e-05  1.1344e-03  3.3368e-05  1.5074e-05  8.1948e-06  0:02:10 1458
   543  3.3855e-05  1.3014e-04  5.6668e-05  1.1449e-03  3.3451e-05  1.4969e-05  8.0539e-06  0:01:44 1457
   544  3.4077e-05  1.2887e-04  5.6132e-05  1.1458e-03  3.3691e-05  1.4861e-05  7.9339e-06  0:01:23 1456
   545  3.4399e-05  1.2755e-04  5.5645e-05  1.1373e-03  3.4029e-05  1.4762e-05  7.8301e-06  0:01:07 1455
   546  3.4771e-05  1.2618e-04  5.5206e-05  1.1199e-03  3.4415e-05  1.4660e-05  7.7359e-06  0:00:53 1454
   547  3.5152e-05  1.2477e-04  5.4811e-05  1.0941e-03  3.4807e-05  1.4555e-05  7.6432e-06  0:00:43 1453
   548  3.5511e-05  1.2335e-04  5.4458e-05  1.0600e-03  3.5175e-05  1.4453e-05  7.5501e-06  0:00:34 1452
   549  3.5829e-05  1.2191e-04  5.4143e-05  1.0185e-03  3.5498e-05  1.4348e-05  7.4591e-06  0:00:27 1451
   550  3.6094e-05  1.2047e-04  5.3860e-05  9.7079e-04  3.5766e-05  1.4243e-05  7.3669e-06  0:05:12 1450

  iter  continuity  x-velocity  y-velocity  z-velocity      energy           k       omega     time/iter
   551  3.6305e-05  1.1905e-04  5.3605e-05  9.1786e-04  3.5976e-05  1.4146e-05  7.2776e-06  0:04:09 1449
   552  3.6466e-05  1.1764e-04  5.3373e-05  8.6069e-04  3.6135e-05  1.4047e-05  7.1986e-06  0:03:19 1448
   553  3.6588e-05  1.1628e-04  5.3158e-05  8.0118e-04  3.6253e-05  1.3933e-05  7.1154e-06  0:02:39 1447
   554  3.6688e-05  1.1495e-04  5.2955e-05  7.4139e-04  3.6347e-05  1.3812e-05  7.0442e-06  0:02:07 1446
   555  3.6784e-05  1.1368e-04  5.2758e-05  6.8408e-04  3.6436e-05  1.3695e-05  6.9747e-06  0:01:42 1445
   556  3.6898e-05  1.1246e-04  5.2563e-05  6.3308e-04  3.6542e-05  1.3585e-05  6.9037e-06  0:01:21 1444
   557  3.7049e-05  1.1130e-04  5.2366e-05  5.9259e-04  3.6685e-05  1.3474e-05  6.8366e-06  0:01:05 1443
   558  3.7258e-05  1.1021e-04  5.2160e-05  5.6765e-04  3.6885e-05  1.3369e-05  6.7801e-06  0:00:52 1442
   559  3.7540e-05  1.0917e-04  5.1944e-05  5.5914e-04  3.7158e-05  1.3273e-05  6.7291e-06  0:00:42 1441
   560  3.7905e-05  1.0820e-04  5.1714e-05  5.6808e-04  3.7515e-05  1.3169e-05  6.6881e-06  0:00:33 1440
   561  3.8360e-05  1.0729e-04  5.1467e-05  5.9279e-04  3.7963e-05  1.3064e-05  6.6456e-06  0:05:14 1439

  iter  continuity  x-velocity  y-velocity  z-velocity      energy           k       omega     time/iter
   562  3.8904e-05  1.0644e-04  5.1201e-05  6.2937e-04  3.8501e-05  1.2952e-05  6.6070e-06  0:04:11 1438
   563  3.9530e-05  1.0564e-04  5.0916e-05  6.7509e-04  3.9122e-05  1.2832e-05  6.5613e-06  0:03:21 1437
   564  4.0227e-05  1.0489e-04  5.0609e-05  7.2511e-04  3.9816e-05  1.2711e-05  6.5142e-06  0:02:41 1436
   565  4.0977e-05  1.0418e-04  5.0281e-05  7.7436e-04  4.0564e-05  1.2607e-05  6.4732e-06  0:02:08 1435
   566  4.1762e-05  1.0351e-04  4.9933e-05  8.2263e-04  4.1348e-05  1.2492e-05  6.4325e-06  0:01:43 1434
   567  4.2558e-05  1.0289e-04  4.9563e-05  8.6756e-04  4.2144e-05  1.2364e-05  6.3891e-06  0:01:22 1433
   568  4.3341e-05  1.0229e-04  4.9174e-05  9.0839e-04  4.2929e-05  1.2231e-05  6.3390e-06  0:01:06 1432
   569  4.4088e-05  1.0172e-04  4.8767e-05  9.4558e-04  4.3678e-05  1.2097e-05  6.2882e-06  0:00:52 1431
   570  4.4776e-05  1.0119e-04  4.8343e-05  9.7691e-04  4.4369e-05  1.1958e-05  6.2460e-06  0:00:42 1430
   571  4.5381e-05  1.0067e-04  4.7903e-05  9.9585e-04  4.4978e-05  1.1823e-05  6.2040e-06  0:00:34 1429
   572  4.5886e-05  1.0019e-04  4.7450e-05  1.0089e-03  4.5486e-05  1.1689e-05  6.1546e-06  0:00:27 1428

  iter  continuity  x-velocity  y-velocity  z-velocity      energy           k       omega     time/iter
   573  4.6271e-05  9.9728e-05  4.6984e-05  1.0144e-03  4.5876e-05  1.1554e-05  6.0985e-06  0:05:07 1427
   574  4.6522e-05  9.9292e-05  4.6509e-05  1.0106e-03  4.6131e-05  1.1419e-05  6.0471e-06  0:04:05 1426
   575  4.6626e-05  9.8884e-05  4.6024e-05  9.9989e-04  4.6240e-05  1.1282e-05  5.9969e-06  0:03:16 1425
   576  4.6574e-05  9.8503e-05  4.5532e-05  9.8106e-04  4.6194e-05  1.1145e-05  5.9460e-06  0:02:37 1424
   577  4.6360e-05  9.8150e-05  4.5035e-05  9.5536e-04  4.5985e-05  1.1014e-05  5.8950e-06  0:02:05 1423
   578  4.5981e-05  9.7827e-05  4.4532e-05  9.2372e-04  4.5611e-05  1.0892e-05  5.8490e-06  0:01:40 1422
   579  4.5435e-05  9.7534e-05  4.4025e-05  8.8434e-04  4.5070e-05  1.0786e-05  5.8112e-06  0:01:20 1421
   580  4.4725e-05  9.7271e-05  4.3514e-05  8.3826e-04  4.4365e-05  1.0678e-05  5.7738e-06  0:01:04 1420
   581  4.3856e-05  9.7038e-05  4.3000e-05  7.8681e-04  4.3501e-05  1.0571e-05  5.7341e-06  0:00:51 1419
   582  4.2835e-05  9.6835e-05  4.2484e-05  7.3014e-04  4.2486e-05  1.0472e-05  5.6993e-06  0:00:41 1418
   583  4.1673e-05  9.6657e-05  4.1965e-05  6.6926e-04  4.1328e-05  1.0379e-05  5.6752e-06  0:00:33 1417

  iter  continuity  x-velocity  y-velocity  z-velocity      energy           k       omega     time/iter
   584  4.0381e-05  9.6504e-05  4.1444e-05  6.0544e-04  4.0041e-05  1.0286e-05  5.6476e-06  0:05:09 1416
   585  3.8974e-05  9.6371e-05  4.0921e-05  5.3998e-04  3.8639e-05  1.0191e-05  5.6199e-06  0:04:07 1415
   586  3.7469e-05  9.6255e-05  4.0395e-05  4.7492e-04  3.7138e-05  1.0100e-05  5.5884e-06  0:03:18 1414
   587  3.5884e-05  9.6149e-05  3.9867e-05  4.1273e-04  3.5557e-05  1.0014e-05  5.5513e-06  0:02:38 1413
   588  3.4239e-05  9.6048e-05  3.9336e-05  3.5769e-04  3.3916e-05  9.9357e-06  5.5113e-06  0:02:06 1412
   589  3.2557e-05  9.5947e-05  3.8803e-05  3.1524e-04  3.2237e-05  9.8612e-06  5.4692e-06  0:01:41 1411
   590  3.0860e-05  9.5840e-05  3.8269e-05  2.9207e-04  3.0543e-05  9.7883e-06  5.4233e-06  0:01:21 1410
   591  2.9173e-05  9.5719e-05  3.7733e-05  2.9145e-04  2.8859e-05  9.7222e-06  5.3781e-06  0:01:05 1409
   592  2.7523e-05  9.5579e-05  3.7197e-05  3.1313e-04  2.7212e-05  9.6582e-06  5.3340e-06  0:00:52 1408
   593  2.5935e-05  9.5414e-05  3.6660e-05  3.5098e-04  2.5627e-05  9.5988e-06  5.2903e-06  0:00:41 1407
   594  2.4436e-05  9.5218e-05  3.6125e-05  3.9807e-04  2.4131e-05  9.5472e-06  5.2494e-06  0:00:33 1406

  iter  continuity  x-velocity  y-velocity  z-velocity      energy           k       omega     time/iter
   595  2.3052e-05  9.4987e-05  3.5592e-05  4.4878e-04  2.2751e-05  9.5004e-06  5.2109e-06  0:00:26 1405
   596  2.1806e-05  9.4716e-05  3.5063e-05  5.0052e-04  2.1510e-05  9.4563e-06  5.1733e-06  0:05:02 1404
   597  2.0720e-05  9.4403e-05  3.4539e-05  5.5123e-04  2.0430e-05  9.4147e-06  5.1369e-06  0:04:01 1403
   598  1.9807e-05  9.4046e-05  3.4022e-05  5.9929e-04  1.9524e-05  9.3756e-06  5.1044e-06  0:03:13 1402
   599  1.9076e-05  9.3642e-05  3.3513e-05  6.4371e-04  1.8801e-05  9.3415e-06  5.0730e-06  0:02:34 1401
   600  1.8525e-05  9.3191e-05  3.3015e-05  6.8419e-04  1.8260e-05  9.3099e-06  5.0434e-06  0:02:03 1400
   601  1.8144e-05  9.2695e-05  3.2529e-05  7.1963e-04  1.7890e-05  9.2845e-06  5.0194e-06  0:01:39 1399
   602  1.7914e-05  9.2155e-05  3.2057e-05  7.5004e-04  1.7673e-05  9.2629e-06  4.9953e-06  0:01:19 1398
   603  1.7813e-05  9.1573e-05  3.1601e-05  7.7493e-04  1.7583e-05  9.2456e-06  4.9723e-06  0:01:03 1397
   604  1.7811e-05  9.0954e-05  3.1161e-05  7.9440e-04  1.7593e-05  9.2325e-06  4.9510e-06  0:00:50 1396
   605  1.7882e-05  9.0300e-05  3.0740e-05  8.0811e-04  1.7673e-05  9.2242e-06  4.9329e-06  0:00:40 1395

  iter  continuity  x-velocity  y-velocity  z-velocity      energy           k       omega     time/iter
   606  1.7997e-05  8.9618e-05  3.0339e-05  8.1578e-04  1.7798e-05  9.2213e-06  4.9297e-06  0:00:32 1394
   607  1.8136e-05  8.8912e-05  2.9957e-05  8.1783e-04  1.7945e-05  9.2213e-06  4.9311e-06  0:05:04 1393
   608  1.8278e-05  8.8189e-05  2.9596e-05  8.1448e-04  1.8094e-05  9.2247e-06  4.9384e-06  0:04:03 1392
   609  1.8411e-05  8.7454e-05  2.9256e-05  8.0578e-04  1.8231e-05  9.2305e-06  4.9513e-06  0:03:14 1391
   610  1.8524e-05  8.6714e-05  2.8936e-05  7.9216e-04  1.8348e-05  9.2387e-06  4.9660e-06  0:02:35 1390
   611  1.8614e-05  8.5973e-05  2.8637e-05  7.7391e-04  1.8440e-05  9.2507e-06  4.9801e-06  0:02:04 1389
   612  1.8680e-05  8.5238e-05  2.8357e-05  7.5137e-04  1.8507e-05  9.2618e-06  4.9931e-06  0:01:39 1388
   613  1.8723e-05  8.4515e-05  2.8095e-05  7.2512e-04  1.8550e-05  9.2721e-06  5.0074e-06  0:01:19 1387
   614  1.8750e-05  8.3807e-05  2.7850e-05  6.9583e-04  1.8576e-05  9.2815e-06  5.0250e-06  0:01:04 1386
   615  1.8769e-05  8.3116e-05  2.7620e-05  6.6385e-04  1.8592e-05  9.2884e-06  5.0455e-06  0:00:51 1385
   616  1.8789e-05  8.2450e-05  2.7404e-05  6.2999e-04  1.8609e-05  9.2928e-06  5.0633e-06  0:00:41 1384

  iter  continuity  x-velocity  y-velocity  z-velocity      energy           k       omega     time/iter
   617  1.8820e-05  8.1812e-05  2.7200e-05  5.9465e-04  1.8636e-05  9.2956e-06  5.0799e-06  0:00:32 1383
   618  1.8873e-05  8.1203e-05  2.7007e-05  5.5872e-04  1.8685e-05  9.2987e-06  5.0954e-06  0:05:02 1382
   619  1.8956e-05  8.0625e-05  2.6822e-05  5.2314e-04  1.8764e-05  9.3041e-06  5.1078e-06  0:04:02 1381
   620  1.9079e-05  8.0076e-05  2.6645e-05  4.8854e-04  1.8883e-05  9.3126e-06  5.1168e-06  0:03:13 1380
   621  1.9247e-05  7.9559e-05  2.6473e-05  4.5549e-04  1.9047e-05  9.3209e-06  5.1224e-06  0:02:34 1379
   622  1.9464e-05  7.9072e-05  2.6304e-05  4.2513e-04  1.9260e-05  9.3295e-06  5.1272e-06  0:02:03 1378
   623  1.9729e-05  7.8592e-05  2.6138e-05  3.9796e-04  1.9523e-05  9.3353e-06  5.1316e-06  0:01:39 1377
   624  2.0040e-05  7.8134e-05  2.5973e-05  3.7300e-04  1.9832e-05  9.3434e-06  5.1367e-06  0:01:19 1376
[...]
  1838  4.9924e-09  1.6334e-08  6.5265e-09  4.3260e-08  4.9372e-09  2.5743e-09  1.3694e-09  0:00:35  162
  1839  4.9577e-09  1.6221e-08  6.4810e-09  4.2976e-08  4.9029e-09  2.5567e-09  1.3600e-09  0:00:28  161
  1840  4.9233e-09  1.6108e-08  6.4358e-09  4.2701e-08  4.8688e-09  2.5392e-09  1.3506e-09  0:00:22  160
  1841  4.8891e-09  1.5996e-08  6.3909e-09  4.2433e-08  4.8350e-09  2.5219e-09  1.3413e-09  0:00:18  159
  1842  4.8552e-09  1.5884e-08  6.3463e-09  4.2155e-08  4.8014e-09  2.5046e-09  1.3321e-09  0:00:14  158
  1843  4.8215e-09  1.5774e-08  6.3021e-09  4.1894e-08  4.7681e-09  2.4875e-09  1.3229e-09  0:00:11  157
  1844  4.7880e-09  1.5664e-08  6.2581e-09  4.1633e-08  4.7350e-09  2.4705e-09  1.3138e-09  0:00:40  156
  1845  4.7548e-09  1.5555e-08  6.2145e-09  4.1383e-08  4.7022e-09  2.4537e-09  1.3048e-09  0:00:32  155
  1846  4.7218e-09  1.5447e-08  6.1712e-09  4.1124e-08  4.6696e-09  2.4369e-09  1.2958e-09  0:00:25  154
  1847  4.6891e-09  1.5340e-08  6.1282e-09  4.0871e-08  4.6372e-09  2.4203e-09  1.2868e-09  0:00:20  153
  1848  4.6565e-09  1.5233e-08  6.0855e-09  4.0617e-08  4.6050e-09  2.4037e-09  1.2780e-09  0:00:16  152

  iter  continuity  x-velocity  y-velocity  z-velocity      energy           k       omega     time/iter
  1849  4.6243e-09  1.5127e-08  6.0431e-09  4.0359e-08  4.5731e-09  2.3873e-09  1.2692e-09  0:00:13  151
  1850  4.5922e-09  1.5022e-08  6.0010e-09  4.0104e-08  4.5414e-09  2.3710e-09  1.2604e-09  0:00:40  150
  1851  4.5604e-09  1.4917e-08  5.9592e-09  3.9847e-08  4.5099e-09  2.3548e-09  1.2517e-09  0:00:32  149
  1852  4.5288e-09  1.4813e-08  5.9177e-09  3.9593e-08  4.4787e-09  2.3387e-09  1.2431e-09  0:00:25  148
  1853  4.4974e-09  1.4710e-08  5.8765e-09  3.9337e-08  4.4476e-09  2.3227e-09  1.2346e-09  0:00:20  147
  1854  4.4662e-09  1.4608e-08  5.8356e-09  3.9079e-08  4.4168e-09  2.3068e-09  1.2260e-09  0:00:16  146
  1855  4.4352e-09  1.4506e-08  5.7949e-09  3.8815e-08  4.3862e-09  2.2911e-09  1.2176e-09  0:00:13  145
  1856  4.4045e-09  1.4405e-08  5.7546e-09  3.8554e-08  4.3558e-09  2.2754e-09  1.2092e-09  0:00:10  144
  1857  4.3739e-09  1.4305e-08  5.7146e-09  3.8296e-08  4.3255e-09  2.2598e-09  1.2009e-09  0:00:37  143
  1858  4.3436e-09  1.4206e-08  5.6748e-09  3.8032e-08  4.2956e-09  2.2444e-09  1.1926e-09  0:00:29  142
  1859  4.3135e-09  1.4107e-08  5.6353e-09  3.7767e-08  4.2658e-09  2.2290e-09  1.1844e-09  0:00:23  141

  iter  continuity  x-velocity  y-velocity  z-velocity      energy           k       omega     time/iter
  1860  4.2835e-09  1.4009e-08  5.5961e-09  3.7501e-08  4.2362e-09  2.2138e-09  1.1762e-09  0:00:18  140
  1861  4.2538e-09  1.3911e-08  5.5572e-09  3.7241e-08  4.2068e-09  2.1987e-09  1.1681e-09  0:00:15  139
  1862  4.2243e-09  1.3814e-08  5.5186e-09  3.6989e-08  4.1776e-09  2.1836e-09  1.1600e-09  0:00:39  138
  1863  4.1950e-09  1.3718e-08  5.4802e-09  3.6731e-08  4.1486e-09  2.1687e-09  1.1520e-09  0:00:31  137
  1864  4.1659e-09  1.3623e-08  5.4421e-09  3.6472e-08  4.1198e-09  2.1538e-09  1.1441e-09  0:00:25  136
  1865  4.1369e-09  1.3528e-08  5.4043e-09  3.6213e-08  4.0912e-09  2.1391e-09  1.1362e-09  0:00:20  135
  1866  4.1082e-09  1.3434e-08  5.3668e-09  3.5959e-08  4.0628e-09  2.1245e-09  1.1284e-09  0:00:16  134
  1867  4.0797e-09  1.3340e-08  5.3295e-09  3.5710e-08  4.0346e-09  2.1099e-09  1.1206e-09  0:00:12  133
  1868  4.0513e-09  1.3248e-08  5.2925e-09  3.5464e-08  4.0065e-09  2.0955e-09  1.1128e-09  0:00:10  132
  1869  4.0232e-09  1.3155e-08  5.2557e-09  3.5220e-08  3.9787e-09  2.0811e-09  1.1052e-09  0:00:34  131
  1870  3.9952e-09  1.3064e-08  5.2192e-09  3.4978e-08  3.9510e-09  2.0669e-09  1.0975e-09  0:00:27  130

  iter  continuity  x-velocity  y-velocity  z-velocity      energy           k       omega     time/iter
  1871  3.9675e-09  1.2973e-08  5.1830e-09  3.4731e-08  3.9236e-09  2.0527e-09  1.0900e-09  0:00:21  129
  1872  3.9399e-09  1.2883e-08  5.1470e-09  3.4492e-08  3.8963e-09  2.0387e-09  1.0824e-09  0:00:17  128
  1873  3.9125e-09  1.2793e-08  5.1113e-09  3.4254e-08  3.8692e-09  2.0247e-09  1.0750e-09  0:00:14  127
  1874  3.8853e-09  1.2704e-08  5.0758e-09  3.4024e-08  3.8423e-09  2.0108e-09  1.0675e-09  0:00:11  126
  1875  3.8583e-09  1.2615e-08  5.0406e-09  3.3790e-08  3.8156e-09  1.9970e-09  1.0602e-09  0:00:09  125
  1876  3.8315e-09  1.2528e-08  5.0056e-09  3.3554e-08  3.7891e-09  1.9833e-09  1.0528e-09  0:00:32  124
  1877  3.8048e-09  1.2440e-08  4.9709e-09  3.3326e-08  3.7628e-09  1.9697e-09  1.0456e-09  0:00:25  123
  1878  3.7784e-09  1.2354e-08  4.9364e-09  3.3098e-08  3.7366e-09  1.9562e-09  1.0383e-09  0:00:20  122
  1879  3.7521e-09  1.2268e-08  4.9021e-09  3.2876e-08  3.7106e-09  1.9428e-09  1.0312e-09  0:00:16  121
  1880  3.7260e-09  1.2182e-08  4.8681e-09  3.2658e-08  3.6848e-09  1.9295e-09  1.0240e-09  0:00:13  120
  1881  3.7001e-09  1.2097e-08  4.8343e-09  3.2431e-08  3.6592e-09  1.9162e-09  1.0170e-09  0:00:10  119

  iter  continuity  x-velocity  y-velocity  z-velocity      energy           k       omega     time/iter
  1882  3.6744e-09  1.2013e-08  4.8008e-09  3.2217e-08  3.6338e-09  1.9031e-09  1.0099e-09  0:00:31  118
  1883  3.6489e-09  1.1929e-08  4.7675e-09  3.1999e-08  3.6085e-09  1.8900e-09  1.0030e-09  0:00:25  117
  1884  3.6236e-09  1.1846e-08  4.7344e-09  3.1786e-08  3.5835e-09  1.8770e-09  9.9602e-10  0:00:20  116
  1885  3.5984e-09  1.1763e-08  4.7016e-09  3.1565e-08  3.5586e-09  1.8642e-09  9.8914e-10  0:00:16  115
  1886  3.5734e-09  1.1681e-08  4.6690e-09  3.1345e-08  3.5339e-09  1.8513e-09  9.8229e-10  0:00:12  114
  1887  3.5486e-09  1.1600e-08  4.6366e-09  3.1133e-08  3.5093e-09  1.8386e-09  9.7550e-10  0:00:10  113
  1888  3.5240e-09  1.1519e-08  4.6045e-09  3.0929e-08  3.4850e-09  1.8260e-09  9.6875e-10  0:00:30  112
  1889  3.4995e-09  1.1439e-08  4.5725e-09  3.0721e-08  3.4608e-09  1.8134e-09  9.6205e-10  0:00:24  111
  1890  3.4752e-09  1.1359e-08  4.5408e-09  3.0514e-08  3.4368e-09  1.8010e-09  9.5539e-10  0:00:19  110
  1891  3.4511e-09  1.1280e-08  4.5093e-09  3.0305e-08  3.4129e-09  1.7886e-09  9.4878e-10  0:00:15  109
  1892  3.4272e-09  1.1201e-08  4.4781e-09  3.0100e-08  3.3893e-09  1.7763e-09  9.4221e-10  0:00:12  108

  iter  continuity  x-velocity  y-velocity  z-velocity      energy           k       omega     time/iter
  1893  3.4034e-09  1.1123e-08  4.4470e-09  2.9898e-08  3.3658e-09  1.7640e-09  9.3568e-10  0:00:09  107
  1894  3.3798e-09  1.1045e-08  4.4162e-09  2.9697e-08  3.3425e-09  1.7519e-09  9.2921e-10  0:00:08  106
  1895  3.3564e-09  1.0968e-08  4.3856e-09  2.9488e-08  3.3193e-09  1.7398e-09  9.2277e-10  0:00:27  105
  1896  3.3332e-09  1.0892e-08  4.3552e-09  2.9285e-08  3.2963e-09  1.7278e-09  9.1638e-10  0:00:21  104
  1897  3.3101e-09  1.0816e-08  4.3250e-09  2.9089e-08  3.2735e-09  1.7159e-09  9.1003e-10  0:00:17  103
  1898  3.2871e-09  1.0740e-08  4.2950e-09  2.8887e-08  3.2508e-09  1.7041e-09  9.0372e-10  0:00:13  102
  1899  3.2644e-09  1.0665e-08  4.2652e-09  2.8687e-08  3.2283e-09  1.6924e-09  8.9746e-10  0:00:11  101
  1900  3.2418e-09  1.0591e-08  4.2356e-09  2.8494e-08  3.2059e-09  1.6807e-09  8.9124e-10  0:00:08  100
  1901  3.2194e-09  1.0517e-08  4.2062e-09  2.8297e-08  3.1838e-09  1.6691e-09  8.8506e-10  0:00:07   99
  1902  3.1971e-09  1.0443e-08  4.1771e-09  2.8103e-08  3.1617e-09  1.6576e-09  8.7892e-10  0:00:25   98
  1903  3.1750e-09  1.0370e-08  4.1481e-09  2.7911e-08  3.1399e-09  1.6461e-09  8.7283e-10  0:00:20   97

  iter  continuity  x-velocity  y-velocity  z-velocity      energy           k       omega     time/iter
  1904  3.1530e-09  1.0298e-08  4.1194e-09  2.7722e-08  3.1181e-09  1.6348e-09  8.6677e-10  0:00:16   96
  1905  3.1312e-09  1.0226e-08  4.0908e-09  2.7539e-08  3.0966e-09  1.6235e-09  8.6076e-10  0:00:12   95
  1906  3.1095e-09  1.0155e-08  4.0624e-09  2.7367e-08  3.0751e-09  1.6123e-09  8.5479e-10  0:00:10   94
  1907  3.0880e-09  1.0084e-08  4.0343e-09  2.7190e-08  3.0539e-09  1.6011e-09  8.4886e-10  0:00:08   93
  1908  3.0667e-09  1.0013e-08  4.0063e-09  2.7008e-08  3.0328e-09  1.5901e-09  8.4296e-10  0:00:25   92
  1909  3.0455e-09  9.9435e-09  3.9785e-09  2.6837e-08  3.0118e-09  1.5791e-09  8.3711e-10  0:00:19   91
  1910  3.0244e-09  9.8740e-09  3.9509e-09  2.6670e-08  2.9910e-09  1.5682e-09  8.3130e-10  0:00:15   90
  1911  3.0035e-09  9.8050e-09  3.9235e-09  2.6498e-08  2.9703e-09  1.5573e-09  8.2553e-10  0:00:12   89
  1912  2.9827e-09  9.7366e-09  3.8963e-09  2.6331e-08  2.9497e-09  1.5465e-09  8.1979e-10  0:00:10   88
  1913  2.9621e-09  9.6685e-09  3.8693e-09  2.6168e-08  2.9293e-09  1.5358e-09  8.1410e-10  0:00:08   87
  1914  2.9416e-09  9.6010e-09  3.8425e-09  2.6013e-08  2.9091e-09  1.5252e-09  8.0844e-10  0:00:23   86

  iter  continuity  x-velocity  y-velocity  z-velocity      energy           k       omega     time/iter
  1915  2.9212e-09  9.5339e-09  3.8159e-09  2.5854e-08  2.8889e-09  1.5147e-09  8.0283e-10  0:00:18   85
  1916  2.9010e-09  9.4673e-09  3.7894e-09  2.5696e-08  2.8689e-09  1.5042e-09  7.9725e-10  0:00:15   84
  1917  2.8809e-09  9.4012e-09  3.7631e-09  2.5537e-08  2.8491e-09  1.4937e-09  7.9170e-10  0:00:11   83
  1918  2.8610e-09  9.3355e-09  3.7370e-09  2.5381e-08  2.8294e-09  1.4834e-09  7.8620e-10  0:00:09   82
  1919  2.8412e-09  9.2703e-09  3.7111e-09  2.5221e-08  2.8098e-09  1.4731e-09  7.8073e-10  0:00:07   81
  1920  2.8215e-09  9.2055e-09  3.6854e-09  2.5064e-08  2.7903e-09  1.4629e-09  7.7530e-10  0:00:22   80
  1921  2.8019e-09  9.1412e-09  3.6599e-09  2.4906e-08  2.7710e-09  1.4527e-09  7.6991e-10  0:00:17   79
  1922  2.7825e-09  9.0773e-09  3.6345e-09  2.4751e-08  2.7518e-09  1.4427e-09  7.6455e-10  0:00:14   78
  1923  2.7633e-09  9.0139e-09  3.6093e-09  2.4586e-08  2.7327e-09  1.4327e-09  7.5923e-10  0:00:11   77
  1924  2.7441e-09  8.9509e-09  3.5843e-09  2.4427e-08  2.7138e-09  1.4227e-09  7.5395e-10  0:00:08   76
  1925  2.7251e-09  8.8884e-09  3.5594e-09  2.4271e-08  2.6950e-09  1.4128e-09  7.4870e-10  0:00:07   75

  iter  continuity  x-velocity  y-velocity  z-velocity      energy           k       omega     time/iter
  1926  2.7062e-09  8.8263e-09  3.5348e-09  2.4121e-08  2.6763e-09  1.4030e-09  7.4349e-10  0:00:20   74
  1927  2.6874e-09  8.7646e-09  3.5103e-09  2.3958e-08  2.6577e-09  1.3933e-09  7.3831e-10  0:00:16   73
  1928  2.6688e-09  8.7033e-09  3.4859e-09  2.3805e-08  2.6393e-09  1.3836e-09  7.3317e-10  0:00:12   72
  1929  2.6502e-09  8.6425e-09  3.4618e-09  2.3650e-08  2.6210e-09  1.3740e-09  7.2806e-10  0:00:10   71
  1930  2.6319e-09  8.5821e-09  3.4378e-09  2.3500e-08  2.6028e-09  1.3644e-09  7.2299e-10  0:00:08   70
  1931  2.6136e-09  8.5221e-09  3.4139e-09  2.3347e-08  2.5847e-09  1.3550e-09  7.1795e-10  0:00:06   69
  1932  2.5954e-09  8.4625e-09  3.3903e-09  2.3193e-08  2.5667e-09  1.3455e-09  7.1295e-10  0:00:18   68
  1933  2.5774e-09  8.4034e-09  3.3668e-09  2.3042e-08  2.5489e-09  1.3362e-09  7.0798e-10  0:00:15   67
  1934  2.5595e-09  8.3446e-09  3.3434e-09  2.2896e-08  2.5312e-09  1.3269e-09  7.0304e-10  0:00:11   66
  1935  2.5417e-09  8.2863e-09  3.3203e-09  2.2738e-08  2.5136e-09  1.3176e-09  6.9814e-10  0:00:09   65
  1936  2.5241e-09  8.2283e-09  3.2973e-09  2.2590e-08  2.4962e-09  1.3085e-09  6.9327e-10  0:00:07   64

  iter  continuity  x-velocity  y-velocity  z-velocity      energy           k       omega     time/iter
  1937  2.5065e-09  8.1708e-09  3.2744e-09  2.2445e-08  2.4788e-09  1.2993e-09  6.8844e-10  0:00:06   63
  1938  2.4891e-09  8.1137e-09  3.2517e-09  2.2292e-08  2.4616e-09  1.2903e-09  6.8363e-10  0:00:17   62
  1939  2.4718e-09  8.0569e-09  3.2292e-09  2.2148e-08  2.4445e-09  1.2813e-09  6.7886e-10  0:00:13   61
  1940  2.4546e-09  8.0006e-09  3.2068e-09  2.2002e-08  2.4275e-09  1.2724e-09  6.7413e-10  0:00:10   60
  1941  2.4376e-09  7.9446e-09  3.1845e-09  2.1863e-08  2.4106e-09  1.2635e-09  6.6942e-10  0:00:08   59
  1942  2.4206e-09  7.8890e-09  3.1624e-09  2.1719e-08  2.3939e-09  1.2547e-09  6.6475e-10  0:00:06   58
  1943  2.4038e-09  7.8338e-09  3.1405e-09  2.1575e-08  2.3772e-09  1.2459e-09  6.6011e-10  0:00:05   57
  1944  2.3871e-09  7.7790e-09  3.1187e-09  2.1437e-08  2.3607e-09  1.2373e-09  6.5550e-10  0:00:15   56
  1945  2.3705e-09  7.7246e-09  3.0971e-09  2.1307e-08  2.3443e-09  1.2286e-09  6.5092e-10  0:00:12   55
  1946  2.3540e-09  7.6706e-09  3.0756e-09  2.1166e-08  2.3280e-09  1.2200e-09  6.4637e-10  0:00:09   54
  1947  2.3377e-09  7.6169e-09  3.0543e-09  2.1035e-08  2.3118e-09  1.2115e-09  6.4186e-10  0:00:07   53

  iter  continuity  x-velocity  y-velocity  z-velocity      energy           k       omega     time/iter
  1948  2.3214e-09  7.5636e-09  3.0331e-09  2.0899e-08  2.2958e-09  1.2031e-09  6.3737e-10  0:00:06   52
  1949  2.3053e-09  7.5106e-09  3.0121e-09  2.0773e-08  2.2798e-09  1.1947e-09  6.3292e-10  0:00:05   51
  1950  2.2893e-09  7.4581e-09  2.9912e-09  2.0638e-08  2.2640e-09  1.1863e-09  6.2849e-10  0:00:14   50
  1951  2.2734e-09  7.4059e-09  2.9704e-09  2.0502e-08  2.2482e-09  1.1780e-09  6.2410e-10  0:00:11   49
  1952  2.2576e-09  7.3540e-09  2.9498e-09  2.0372e-08  2.2326e-09  1.1698e-09  6.1974e-10  0:00:08   48
  1953  2.2419e-09  7.3025e-09  2.9293e-09  2.0237e-08  2.2171e-09  1.1616e-09  6.1540e-10  0:00:07   47
  1954  2.2263e-09  7.2514e-09  2.9090e-09  2.0109e-08  2.2017e-09  1.1535e-09  6.1110e-10  0:00:05   46
  1955  2.2108e-09  7.2007e-09  2.8888e-09  1.9988e-08  2.1864e-09  1.1454e-09  6.0683e-10  0:00:04   45
  1956  2.1955e-09  7.1502e-09  2.8688e-09  1.9866e-08  2.1712e-09  1.1374e-09  6.0258e-10  0:00:12   44
  1957  2.1802e-09  7.1002e-09  2.8489e-09  1.9743e-08  2.1561e-09  1.1294e-09  5.9837e-10  0:00:09   43
  1958  2.1651e-09  7.0505e-09  2.8291e-09  1.9617e-08  2.1412e-09  1.1215e-09  5.9418e-10  0:00:07   42

  iter  continuity  x-velocity  y-velocity  z-velocity      energy           k       omega     time/iter
  1959  2.1500e-09  7.0011e-09  2.8094e-09  1.9498e-08  2.1263e-09  1.1137e-09  5.9002e-10  0:00:06   41
  1960  2.1351e-09  6.9521e-09  2.7899e-09  1.9375e-08  2.1115e-09  1.1059e-09  5.8589e-10  0:00:04   40
  1961  2.1203e-09  6.9034e-09  2.7705e-09  1.9267e-08  2.0969e-09  1.0981e-09  5.8179e-10  0:00:03   39
  1962  2.1056e-09  6.8550e-09  2.7513e-09  1.9157e-08  2.0823e-09  1.0904e-09  5.7772e-10  0:00:10   38
  1963  2.0909e-09  6.8070e-09  2.7322e-09  1.9047e-08  2.0678e-09  1.0828e-09  5.7367e-10  0:00:08   37
  1964  2.0764e-09  6.7593e-09  2.7132e-09  1.8941e-08  2.0535e-09  1.0752e-09  5.6965e-10  0:00:06   36
  1965  2.0620e-09  6.7120e-09  2.6944e-09  1.8834e-08  2.0392e-09  1.0676e-09  5.6566e-10  0:00:05   35
  1966  2.0477e-09  6.6650e-09  2.6756e-09  1.8733e-08  2.0251e-09  1.0602e-09  5.6170e-10  0:00:04   34
  1967  2.0335e-09  6.6183e-09  2.6570e-09  1.8634e-08  2.0110e-09  1.0527e-09  5.5776e-10  0:00:03   33
  1968  2.0193e-09  6.5720e-09  2.6386e-09  1.8536e-08  1.9970e-09  1.0453e-09  5.5386e-10  0:00:09   32
  1969  2.0053e-09  6.5259e-09  2.6202e-09  1.8446e-08  1.9832e-09  1.0380e-09  5.4998e-10  0:00:07   31

  iter  continuity  x-velocity  y-velocity  z-velocity      energy           k       omega     time/iter
  1970  1.9914e-09  6.4802e-09  2.6020e-09  1.8349e-08  1.9694e-09  1.0307e-09  5.4612e-10  0:00:05   30
  1971  1.9776e-09  6.4348e-09  2.5839e-09  1.8252e-08  1.9557e-09  1.0235e-09  5.4229e-10  0:00:10   29
  1972  1.9638e-09  6.3898e-09  2.5660e-09  1.8165e-08  1.9421e-09  1.0163e-09  5.3849e-10  0:00:08   28
  1973  1.9502e-09  6.3450e-09  2.5481e-09  1.8079e-08  1.9286e-09  1.0091e-09  5.3472e-10  0:00:06   27
  1974  1.9366e-09  6.3006e-09  2.5304e-09  1.7992e-08  1.9152e-09  1.0021e-09  5.3097e-10  0:00:05   26
  1975  1.9232e-09  6.2564e-09  2.5128e-09  1.7902e-08  1.9019e-09  9.9502e-10  5.2724e-10  0:00:03   25
  1976  1.9098e-09  6.2126e-09  2.4954e-09  1.7809e-08  1.8887e-09  9.8802e-10  5.2355e-10  0:00:03   24
  1977  1.8965e-09  6.1691e-09  2.4780e-09  1.7718e-08  1.8755e-09  9.8108e-10  5.1987e-10  0:00:07   23
  1978  1.8833e-09  6.1259e-09  2.4608e-09  1.7630e-08  1.8625e-09  9.7418e-10  5.1623e-10  0:00:05   22
  1979  1.8702e-09  6.0830e-09  2.4437e-09  1.7537e-08  1.8496e-09  9.6733e-10  5.1260e-10  0:00:04   21
  1980  1.8572e-09  6.0404e-09  2.4267e-09  1.7439e-08  1.8367e-09  9.6052e-10  5.0901e-10  0:00:03   20

  iter  continuity  x-velocity  y-velocity  z-velocity      energy           k       omega     time/iter
  1981  1.8443e-09  5.9981e-09  2.4098e-09  1.7350e-08  1.8239e-09  9.5377e-10  5.0544e-10  0:00:02   19
  1982  1.8315e-09  5.9561e-09  2.3930e-09  1.7253e-08  1.8112e-09  9.4706e-10  5.0189e-10  0:00:02   18
  1983  1.8187e-09  5.9143e-09  2.3764e-09  1.7155e-08  1.7986e-09  9.4039e-10  4.9837e-10  0:00:05   17
  1984  1.8060e-09  5.8729e-09  2.3598e-09  1.7066e-08  1.7861e-09  9.3378e-10  4.9487e-10  0:00:04   16
  1985  1.7935e-09  5.8318e-09  2.3434e-09  1.6971e-08  1.7736e-09  9.2720e-10  4.9139e-10  0:00:03   15
  1986  1.7810e-09  5.7909e-09  2.3271e-09  1.6885e-08  1.7613e-09  9.2068e-10  4.8794e-10  0:00:02   14
  1987  1.7686e-09  5.7504e-09  2.3109e-09  1.6786e-08  1.7490e-09  9.1419e-10  4.8452e-10  0:00:01   13
  1988  1.7562e-09  5.7101e-09  2.2948e-09  1.6690e-08  1.7368e-09  9.0775e-10  4.8112e-10  0:00:01   12
  1989  1.7440e-09  5.6701e-09  2.2788e-09  1.6595e-08  1.7247e-09  9.0136e-10  4.7774e-10  0:00:03   11
  1990  1.7318e-09  5.6304e-09  2.2630e-09  1.6495e-08  1.7127e-09  8.9501e-10  4.7438e-10  0:00:02   10
  1991  1.7198e-09  5.5909e-09  2.2472e-09  1.6411e-08  1.7007e-09  8.8871e-10  4.7105e-10  0:00:02    9

  iter  continuity  x-velocity  y-velocity  z-velocity      energy           k       omega     time/iter
  1992  1.7078e-09  5.5518e-09  2.2316e-09  1.6324e-08  1.6889e-09  8.8245e-10  4.6774e-10  0:00:01    8
  1993  1.6958e-09  5.5129e-09  2.2160e-09  1.6238e-08  1.6771e-09  8.7623e-10  4.6445e-10  0:00:01    7
  1994  1.6840e-09  5.4743e-09  2.2006e-09  1.6158e-08  1.6654e-09  8.7005e-10  4.6119e-10  0:00:01    6
  1995  1.6723e-09  5.4359e-09  2.1853e-09  1.6075e-08  1.6538e-09  8.6392e-10  4.5795e-10  0:00:01    5
  1996  1.6606e-09  5.3979e-09  2.1701e-09  1.5985e-08  1.6422e-09  8.5783e-10  4.5473e-10  0:00:01    4
  1997  1.6490e-09  5.3601e-09  2.1549e-09  1.5901e-08  1.6308e-09  8.5178e-10  4.5154e-10  0:00:01    3
  1998  1.6375e-09  5.3225e-09  2.1399e-09  1.5823e-08  1.6194e-09  8.4578e-10  4.4836e-10  0:00:00    2
  1999  1.6260e-09  5.2852e-09  2.1250e-09  1.5747e-08  1.6081e-09  8.3981e-10  4.4521e-10  0:00:00    1
  2000  1.6147e-09  5.2482e-09  2.1102e-09  1.5668e-08  1.5968e-09  8.3389e-10  4.4208e-10  0:00:00    0

> 
adjoint/                parallel/               server/
define/                 parametric-study/       solve/
display/                plot/                   surface/
exit                    preferences/            turbo-workflow/
file/                   print-license-usage     views/
mesh/                   report/

> /file/write-case-data project1
Fast-loading "C:\PROGRA~1\ANSYSI~1\v231\fluent\fluent23.1.0\\addons\afd\lib\hdfio.bin"
Done.

Writing to Engs-30669:"C:\Users\kebl7595\Desktop\CFD\Runs\Viscous\6 degrees\project1.cas.h5" in NODE0 mode and compression level 1 ...
       12996 cells,     1 zone  ...
       43722 faces,     8 zones ...
       17864 nodes,     1 zone  ...
  Done.
Done.

Writing to Engs-30669:"C:\Users\kebl7595\Desktop\CFD\Runs\Viscous\6 degrees\project1.dat.h5" in NODE0 mode and compression level 1 ...
  Writing results.
Done.

> /file/export/ascii "./surface.dat" wing te () no pressure mach-number quit no

Writing "./surface.dat"...

Writing information to ascii file ...
Done.


> /report/forces/wall-forces y -0.10453 0.99452 0 y "Lift"

> /report/forces/wall-forces y 0.99452 0.10453 0 y "Drag"

> /exit

Posting ANSYS Product Improvement Program performance data 
Done.
Auto-Transcript Stop Time:  10:45:54, 21 May 2024 GMT Daylight Time 
Total Transcript Time: 3 Minute 56 Second.
