Auto-Transcript Start Time:  11:36:51, 22 May 2024 GMT Daylight Time 
Current Directory: "C:\Users\kebl7595\Desktop\CFD\Runs\Flap\Shallower Aspect Ratio\3 degrees"

              Welcome to ANSYS Fluent 2023 R1

              Copyright 1987-2023 ANSYS, Inc. All Rights Reserved.
              Unauthorized use, distribution or duplication is prohibited.
              This product is subject to U.S. laws governing export and re-export.
              For full Legal Notice, see documentation.

Build Time: Nov 28 2022 09:52:02 EST  Build Id: 10208  
 
Connected License Server List:	1055@ansyslic.eng.ox.ac.uk

*********************************************
Info: Your license enables 4-way parallel execution.
For faster simulations, please start the application with the appropriate parallel options.
*********************************************


     --------------------------------------------------------------
     This is an academic version of ANSYS FLUENT. Usage of this product
     license is limited to the terms and conditions specified in your ANSYS
     license form, additional terms section.
     --------------------------------------------------------------
Host spawning Node 0 on machine "Engs-30669" (win64).

------------------------------------------------------------------------------------
ID    Hostname    Core  O.S.         PID    Vendor                                 
------------------------------------------------------------------------------------
n0    Engs-30669  1/32  Windows-x64  43284  13th Gen Intel(R) Core(TM) i9-13900    
host  Engs-30669        Windows-x64  14992  13th Gen Intel(R) Core(TM) i9-13900    

MPI Option Selected: intel
------------------------------------------------------------------------------------

Cleanup script file is C:\\Users\\kebl7595\\Desktop\\CFD\\Runs\\Flap\\Shallower Aspect Ratio\\3 degrees\\cleanup-fluent-Engs-30669-14992.bat

Posting ANSYS Product Improvement Program startup data
Done.

Reading journal file C:/Users/kebl7595/Desktop/CFD/Runs/Flap/Shallower Aspect Ratio/3 degrees/project1.jou...

> /file/set-batch-options no no no 

> 
define/                 parametric-study/       solve/
display/                plot/                   surface/
exit                    preferences/            switch-to-meshing-mode
file/                   print-license-usage     turbo-workflow/
mesh/                   report/                 views/
parallel/               server/

> /file/import/cgns/mesh  "./project1.cgns"Note: Rank = 0: Process affinity not being set (6).

Importing "./project1.cgns"

Opening library "C:\\PROGRA~1\\ANSYSI~1\\v231\\fluent\\fluent23.1.0\\vki\\win64\\devtools4.4.6.dll"... done.

Read    26676 nodes
   19422 hexahedral cells, zone  1
   14118 quadrilateral wall faces, zone  2.
   50733 quadrilateral interior faces, zone  3.
     474 quadrilateral interface faces, zone  4.

Building...
     mesh
     materials,
     interface,
     domains,
     zones,
	interface-default_subface
	default_interior-1
	default_subface
	default
     parallel,
The automatic selection for flux type has changed to Rhie-Chow: momentum based.

Done.


> 
adjoint/                parallel/               server/
define/                 parametric-study/       solve/
display/                plot/                   surface/
exit                    preferences/            turbo-workflow/
file/                   print-license-usage     views/
mesh/                   report/

> /define/models/solver/density-based-implicit yes

> 
adjoint/                parallel/               server/
define/                 parametric-study/       solve/
display/                plot/                   surface/
exit                    preferences/            turbo-workflow/
file/                   print-license-usage     views/
mesh/                   report/

> /define/models/energy? yes yes invalid command [yes]
yes

> /define/models/viscous/kw-standard? yes

> 
adjoint/                parallel/               server/
define/                 parametric-study/       solve/
display/                plot/                   surface/
exit                    preferences/            turbo-workflow/
file/                   print-license-usage     views/
mesh/                   report/

> /define/materials/change-create air air air is a fluid
yes 
Density
ideal-gas no data required.

no no no no no no

> 
adjoint/                parallel/               server/
define/                 parametric-study/       solve/
display/                plot/                   surface/
exit                    preferences/            turbo-workflow/
file/                   print-license-usage     views/
mesh/                   report/

> /mesh/modify-zones/sep-face-zone-angle 2 90 yes

 6474 faces in contiguous region 0
 348 faces in contiguous region 1
 618 faces in contiguous region 2
 6474 faces in contiguous region 3
 204 faces in contiguous region 4
 Separates zone 2 into 5 zone(s).
Updating new zone information...
   created new zone default_subface:009 from default_subface
   created new zone default_subface:008 from default_subface
   created new zone default_subface:007 from default_subface
   created new zone default_subface:006 from default_subface
done.

> 
adjoint/                parallel/               server/
define/                 parametric-study/       solve/
display/                plot/                   surface/
exit                    preferences/            turbo-workflow/
file/                   print-license-usage     views/
mesh/                   report/

> /define/boundary-conditions/zone-name  6 wing

> /define/boundary-conditions/zone-name  2 sym1

> /define/boundary-conditions/zone-name  8 sym2

> 
adjoint/                parallel/               server/
define/                 parametric-study/       solve/
display/                plot/                   surface/
exit                    preferences/            turbo-workflow/
file/                   print-license-usage     views/
mesh/                   report/

> /define/boundary-conditions/zone-name  7 far1

> /define/boundary-conditions/zone-name 9 far2

> 
adjoint/                parallel/               server/
define/                 parametric-study/       solve/
display/                plot/                   surface/
exit                    preferences/            turbo-workflow/
file/                   print-license-usage     views/
mesh/                   report/

> /define/boundary-conditions/zone-type  7 pressure-far-field

> /define/boundary-conditions/zone-type 9 pressure-far-field

> /define/boundary-conditions/zone-type  2 symmetry

> /define/boundary-conditions/zone-type  8 symmetry

> 
adjoint/                parallel/               server/
define/                 parametric-study/       solve/
display/                plot/                   surface/
exit                    preferences/            turbo-workflow/
file/                   print-license-usage     views/
mesh/                   report/

> /define/boundary-conditions/pressure-far-field (far2 far1)
far1 no 0 no 0.1 no 300 yes no 0.99863 no -0.052336 no 0. no yes 5 0.02

> /define/boundary-conditions/pressure-far-field (far2 far1)
far2 no 0 no 0.1 no 300 yes no 0.99863 no -0.052336 no 0. no yes 5 0.02

> 
adjoint/                parallel/               server/
define/                 parametric-study/       solve/
display/                plot/                   surface/
exit                    preferences/            turbo-workflow/
file/                   print-license-usage     views/
mesh/                   report/

> /solve/initialize/compute-defaults/pressure-far-field (far2 far1)
far1

> /solve/initialize/initialize-flow

> 
adjoint/                parallel/               server/
define/                 parametric-study/       solve/
display/                plot/                   surface/
exit                    preferences/            turbo-workflow/
file/                   print-license-usage     views/
mesh/                   report/

> /solve/monitors/residual/convergence-criteria 1.e-9 1.e-9 1.e-9 1.e-9 1.e-9 1.e-9 1.e-9

> /solve/iterate 2000

  iter  continuity  x-velocity  y-velocity  z-velocity      energy           k       omega     time/iter
     1  1.0000e+00  1.0000e+00  1.0000e+00  1.0000e+00  1.0000e+00  5.7056e-02  4.9832e-02  0:00:00 1999
     2  5.3231e-01  5.5854e-01  4.7377e-01  1.0000e+00  5.3250e-01  5.1065e-02  4.0686e-02  0:33:18 1998
     3  2.8661e-01  3.1357e-01  2.9347e-01  9.8690e-01  2.8661e-01  4.6059e-02  3.6569e-02  0:26:38 1997
     4  1.7348e-01  1.6630e-01  2.1708e-01  8.2050e-01  1.7337e-01  4.1859e-02  3.3407e-02  0:21:17 1996
     5  1.3132e-01  1.0004e-01  1.7320e-01  8.6625e-01  1.3118e-01  3.8370e-02  3.0937e-02  0:17:01 1995
     6  1.1503e-01  7.0873e-02  1.4929e-01  9.7085e-01  1.1491e-01  3.5330e-02  2.8798e-02  0:13:37 1994
     7  1.0342e-01  5.7683e-02  1.3798e-01  1.0228e+00  1.0333e-01  3.2676e-02  2.6864e-02  0:10:53 1993
     8  9.6615e-02  5.3978e-02  1.3136e-01  1.0276e+00  9.6551e-02  3.0368e-02  2.5163e-02  0:08:42 1992
     9  8.7439e-02  5.0090e-02  1.2560e-01  1.0184e+00  8.7389e-02  2.8382e-02  2.3675e-02  0:06:58 1991
    10  8.1383e-02  4.7728e-02  1.1998e-01  1.0268e+00  8.1326e-02  2.6650e-02  2.2385e-02  0:12:12 1990
    11  7.4055e-02  4.7197e-02  1.1219e-01  1.0063e+00  7.3990e-02  2.5128e-02  2.1230e-02  0:09:45 1989

  iter  continuity  x-velocity  y-velocity  z-velocity      energy           k       omega     time/iter
    12  6.8099e-02  4.6857e-02  1.0559e-01  9.9942e-01  6.8031e-02  2.3781e-02  2.0204e-02  0:07:48 1988
    13  6.1993e-02  4.5659e-02  9.8422e-02  9.8839e-01  6.1920e-02  2.2603e-02  1.9276e-02  0:06:14 1987
    14  5.8543e-02  4.5115e-02  9.1949e-02  9.8098e-01  5.8466e-02  2.1576e-02  1.8481e-02  0:04:59 1986
    15  5.6580e-02  4.4510e-02  8.7643e-02  9.6450e-01  5.6502e-02  2.0676e-02  1.7754e-02  0:03:59 1985
    16  5.4497e-02  4.4675e-02  8.3729e-02  9.7097e-01  5.4420e-02  1.9877e-02  1.7113e-02  0:03:11 1984
    17  5.1799e-02  4.4499e-02  8.0392e-02  9.6321e-01  5.1726e-02  1.9148e-02  1.6500e-02  0:02:33 1983
    18  4.9770e-02  4.2995e-02  7.7223e-02  9.5635e-01  4.9701e-02  1.8499e-02  1.5959e-02  0:02:02 1982
    19  4.8493e-02  4.1316e-02  7.4582e-02  9.5374e-01  4.8427e-02  1.7909e-02  1.5443e-02  0:01:38 1981
    20  4.8245e-02  3.9001e-02  7.1926e-02  9.6821e-01  4.8178e-02  1.7367e-02  1.4975e-02  0:01:18 1980
    21  4.8832e-02  3.6977e-02  6.9934e-02  9.4809e-01  4.8765e-02  1.6875e-02  1.4558e-02  0:07:38 1979
    22  4.9752e-02  3.5278e-02  6.7559e-02  9.3178e-01  4.9687e-02  1.6441e-02  1.4182e-02  0:06:06 1978

  iter  continuity  x-velocity  y-velocity  z-velocity      energy           k       omega     time/iter
    23  5.0339e-02  3.2968e-02  6.5418e-02  9.7899e-01  5.0276e-02  1.6052e-02  1.3829e-02  0:04:53 1977
    24  5.1072e-02  3.0502e-02  6.4148e-02  1.0049e+00  5.1009e-02  1.5684e-02  1.3451e-02  0:03:54 1976
    25  5.3002e-02  2.8080e-02  6.4524e-02  1.0055e+00  5.2940e-02  1.5286e-02  1.3099e-02  0:03:07 1975
    26  5.4874e-02  2.6701e-02  6.5908e-02  9.5447e-01  5.4811e-02  1.5016e-02  1.2877e-02  0:02:30 1974
    27  5.6529e-02  2.5778e-02  6.7705e-02  8.9019e-01  5.6468e-02  1.4748e-02  1.2568e-02  0:02:00 1973
    28  5.8482e-02  2.5477e-02  7.0618e-02  8.2133e-01  5.8422e-02  1.4426e-02  1.2219e-02  0:01:36 1972
    29  5.9174e-02  2.5348e-02  7.4326e-02  7.5135e-01  5.9116e-02  1.4087e-02  1.1970e-02  0:01:17 1971
    30  5.8229e-02  2.5680e-02  7.7587e-02  6.8054e-01  5.8173e-02  1.3953e-02  1.1798e-02  0:07:35 1970
    31  5.6499e-02  2.6184e-02  7.9834e-02  6.2062e-01  5.6446e-02  1.3700e-02  1.1576e-02  0:06:04 1969
    32  5.4849e-02  2.6572e-02  8.1100e-02  5.7623e-01  5.4798e-02  1.3437e-02  1.1319e-02  0:04:51 1968
    33  5.1469e-02  2.6646e-02  8.1130e-02  5.7360e-01  5.1422e-02  1.3138e-02  1.1051e-02  0:03:53 1967

  iter  continuity  x-velocity  y-velocity  z-velocity      energy           k       omega     time/iter
    34  4.7984e-02  2.6722e-02  7.9720e-02  5.7397e-01  4.7939e-02  1.2941e-02  1.0859e-02  0:03:06 1966
    35  4.4902e-02  2.6672e-02  7.7021e-02  5.6644e-01  4.4859e-02  1.2730e-02  1.0648e-02  0:02:29 1965
    36  4.2198e-02  2.6577e-02  7.3214e-02  5.6096e-01  4.2155e-02  1.2405e-02  1.0407e-02  0:01:59 1964
    37  3.9495e-02  2.6137e-02  6.9527e-02  5.3384e-01  3.9451e-02  1.2118e-02  1.0156e-02  0:01:35 1963
    38  3.7178e-02  2.5468e-02  6.5547e-02  5.0833e-01  3.7132e-02  1.1852e-02  9.9281e-03  0:01:16 1962
    39  3.6244e-02  2.4276e-02  6.1728e-02  4.7683e-01  3.6196e-02  1.1564e-02  9.6828e-03  0:01:01 1961
    40  3.5341e-02  2.3866e-02  5.8141e-02  4.4871e-01  3.5293e-02  1.1266e-02  9.4272e-03  0:00:49 1960
    41  3.5029e-02  2.3404e-02  5.5216e-02  4.2505e-01  3.4981e-02  1.0965e-02  9.1664e-03  0:07:11 1959
    42  3.5685e-02  2.2374e-02  5.2557e-02  4.0845e-01  3.5637e-02  1.0705e-02  8.9013e-03  0:05:44 1958
    43  3.6955e-02  2.1468e-02  5.0518e-02  4.0206e-01  3.6910e-02  1.0426e-02  8.6634e-03  0:04:35 1957
    44  3.7721e-02  2.0973e-02  4.9511e-02  4.0714e-01  3.7678e-02  1.0196e-02  8.4215e-03  0:03:40 1956

  iter  continuity  x-velocity  y-velocity  z-velocity      energy           k       omega     time/iter
    45  3.8657e-02  2.0974e-02  4.8819e-02  4.2536e-01  3.8617e-02  9.9775e-03  8.2030e-03  0:02:56 1955
    46  3.8923e-02  2.1438e-02  4.8486e-02  4.5571e-01  3.8886e-02  9.7788e-03  7.9960e-03  0:02:21 1954
    47  3.8752e-02  2.2180e-02  4.8602e-02  4.9912e-01  3.8717e-02  9.6323e-03  7.8450e-03  0:01:53 1953
    48  3.8392e-02  2.3147e-02  4.9112e-02  5.5151e-01  3.8358e-02  9.5026e-03  7.6792e-03  0:01:30 1952
    49  3.7650e-02  2.4346e-02  4.9796e-02  6.1833e-01  3.7619e-02  9.3835e-03  7.5615e-03  0:01:12 1951
    50  3.6549e-02  2.5628e-02  5.0306e-02  6.9266e-01  3.6519e-02  9.2958e-03  7.4469e-03  0:00:58 1950
    51  3.5275e-02  2.6562e-02  5.1132e-02  7.6183e-01  3.5247e-02  9.2271e-03  7.3437e-03  0:00:46 1949
    52  3.4488e-02  2.7707e-02  5.1246e-02  8.1356e-01  3.4460e-02  9.1560e-03  7.2854e-03  0:07:06 1948
    53  3.3667e-02  2.8270e-02  5.1171e-02  8.6534e-01  3.3640e-02  9.0523e-03  7.2247e-03  0:05:41 1947
    54  3.3736e-02  2.8177e-02  5.1163e-02  9.2176e-01  3.3709e-02  8.9370e-03  7.1188e-03  0:04:33 1946
    55  3.4545e-02  2.7661e-02  5.0564e-02  9.6169e-01  3.4519e-02  8.8680e-03  7.0572e-03  0:03:38 1945

  iter  continuity  x-velocity  y-velocity  z-velocity      energy           k       omega     time/iter
    56  3.5981e-02  2.6694e-02  4.9794e-02  1.0135e+00  3.5956e-02  8.7754e-03  6.9907e-03  0:02:54 1944
    57  3.7719e-02  2.5647e-02  4.9345e-02  1.0553e+00  3.7696e-02  8.6029e-03  6.8924e-03  0:02:19 1943
    58  3.9258e-02  2.4387e-02  4.9193e-02  1.0865e+00  3.9236e-02  8.5446e-03  6.8021e-03  0:01:51 1942
    59  4.1084e-02  2.3182e-02  4.9575e-02  1.0840e+00  4.1065e-02  8.4719e-03  6.7793e-03  0:01:29 1941
    60  4.3389e-02  2.2173e-02  5.0241e-02  1.1086e+00  4.3370e-02  8.4541e-03  6.7143e-03  0:01:11 1940
    61  4.5807e-02  2.1298e-02  5.1887e-02  1.1187e+00  4.5790e-02  8.4412e-03  6.6496e-03  0:00:57 1939
    62  4.8552e-02  2.0824e-02  5.4201e-02  1.1141e+00  4.8536e-02  8.4615e-03  6.6167e-03  0:00:46 1938
    63  5.0475e-02  2.0770e-02  5.7240e-02  1.0985e+00  5.0461e-02  8.4334e-03  6.5032e-03  0:00:36 1937
    64  5.1293e-02  2.0717e-02  6.0617e-02  1.0506e+00  5.1282e-02  8.3807e-03  6.4369e-03  0:06:56 1936
    65  5.1413e-02  2.0881e-02  6.3607e-02  9.6224e-01  5.1403e-02  8.4550e-03  6.3951e-03  0:05:33 1935
    66  5.0397e-02  2.1266e-02  6.6289e-02  9.0944e-01  5.0385e-02  8.4285e-03  6.3214e-03  0:04:26 1934

  iter  continuity  x-velocity  y-velocity  z-velocity      energy           k       omega     time/iter
    67  4.8829e-02  2.1675e-02  6.8416e-02  8.7784e-01  4.8815e-02  8.3244e-03  6.2565e-03  0:03:33 1933
    68  4.6880e-02  2.1877e-02  7.0452e-02  8.3838e-01  4.6863e-02  8.1480e-03  6.2208e-03  0:02:50 1932
    69  4.4636e-02  2.1966e-02  7.0847e-02  7.8895e-01  4.4617e-02  8.0587e-03  6.2266e-03  0:02:16 1931
    70  4.3442e-02  2.2125e-02  6.9566e-02  7.3669e-01  4.3422e-02  7.9223e-03  6.1759e-03  0:01:49 1930
    71  4.2291e-02  2.1959e-02  6.7204e-02  6.8480e-01  4.2269e-02  7.7780e-03  6.1358e-03  0:01:27 1929
    72  4.2175e-02  2.1548e-02  6.4384e-02  6.4122e-01  4.2153e-02  7.6050e-03  6.0829e-03  0:01:10 1928
    73  4.1827e-02  2.1349e-02  6.1197e-02  6.0357e-01  4.1805e-02  7.3891e-03  5.9812e-03  0:00:56 1927
    74  4.2624e-02  2.1668e-02  5.7814e-02  5.7815e-01  4.2602e-02  7.2251e-03  5.8786e-03  0:00:44 1926
    75  4.3691e-02  2.1230e-02  5.5627e-02  5.6957e-01  4.3669e-02  7.1078e-03  5.7720e-03  0:00:36 1925
    76  4.5624e-02  2.1201e-02  5.4019e-02  5.7650e-01  4.5603e-02  6.9889e-03  5.6494e-03  0:06:53 1924
    77  4.6117e-02  2.1114e-02  5.2169e-02  5.9262e-01  4.6096e-02  6.9110e-03  5.5071e-03  0:05:30 1923

  iter  continuity  x-velocity  y-velocity  z-velocity      energy           k       omega     time/iter
    78  4.5851e-02  2.0965e-02  5.1726e-02  6.1234e-01  4.5827e-02  6.7868e-03  5.4393e-03  0:04:24 1922
    79  4.4323e-02  2.1139e-02  5.1967e-02  6.3498e-01  4.4297e-02  6.7354e-03  5.3488e-03  0:03:31 1921
    80  4.1690e-02  2.1476e-02  5.2294e-02  6.6707e-01  4.1666e-02  6.6185e-03  5.2470e-03  0:02:49 1920
    81  3.8612e-02  2.2071e-02  5.2501e-02  7.1866e-01  3.8588e-02  6.5622e-03  5.2059e-03  0:02:15 1919
    82  3.6441e-02  2.2900e-02  5.2432e-02  7.8348e-01  3.6417e-02  6.5274e-03  5.1829e-03  0:01:48 1918
    83  3.5476e-02  2.3128e-02  5.2391e-02  8.7673e-01  3.5452e-02  6.4599e-03  5.1561e-03  0:01:26 1917
    84  3.6124e-02  2.3381e-02  5.1983e-02  9.4538e-01  3.6102e-02  6.4075e-03  5.1080e-03  0:01:09 1916
    85  3.7721e-02  2.3295e-02  5.1029e-02  1.0091e+00  3.7701e-02  6.3350e-03  5.0949e-03  0:00:55 1915
    86  3.9149e-02  2.2948e-02  5.0353e-02  1.0743e+00  3.9129e-02  6.3088e-03  5.0751e-03  0:00:44 1914
    87  4.0618e-02  2.2298e-02  4.8964e-02  1.1342e+00  4.0598e-02  6.2688e-03  5.0824e-03  0:06:58 1913
    88  4.2468e-02  2.1565e-02  4.7910e-02  1.1813e+00  4.2449e-02  6.2204e-03  5.1036e-03  0:05:34 1912

  iter  continuity  x-velocity  y-velocity  z-velocity      energy           k       omega     time/iter
    89  4.4341e-02  2.0945e-02  4.7146e-02  1.1848e+00  4.4323e-02  6.1877e-03  5.0720e-03  0:04:27 1911
    90  4.5791e-02  2.0326e-02  4.6664e-02  1.2084e+00  4.5774e-02  6.2219e-03  5.0267e-03  0:03:34 1910
    91  4.6002e-02  1.9617e-02  4.6978e-02  1.2256e+00  4.5986e-02  6.1361e-03  4.9769e-03  0:02:51 1909
    92  4.5252e-02  1.8991e-02  4.7330e-02  1.2346e+00  4.5235e-02  6.0812e-03  4.9358e-03  0:02:17 1908
    93  4.3503e-02  1.8416e-02  4.7965e-02  1.2394e+00  4.3485e-02  6.0054e-03  4.9151e-03  0:01:49 1907
    94  4.0980e-02  1.8014e-02  4.8187e-02  1.2431e+00  4.0963e-02  5.9751e-03  4.8463e-03  0:01:27 1906
    95  3.8264e-02  1.7629e-02  4.8283e-02  1.2389e+00  3.8246e-02  5.8706e-03  4.8003e-03  0:01:10 1905
    96  3.6300e-02  1.7353e-02  4.7681e-02  1.2295e+00  3.6282e-02  5.7476e-03  4.7144e-03  0:00:56 1904
    97  3.4205e-02  1.7249e-02  4.6378e-02  1.2126e+00  3.4188e-02  5.5948e-03  4.6434e-03  0:00:45 1903
    98  3.3031e-02  1.6806e-02  4.4480e-02  1.1921e+00  3.3014e-02  5.4851e-03  4.6049e-03  0:06:56 1902
    99  3.2891e-02  1.6692e-02  4.2119e-02  1.1703e+00  3.2875e-02  5.3486e-03  4.5154e-03  0:05:33 1901

  iter  continuity  x-velocity  y-velocity  z-velocity      energy           k       omega     time/iter
   100  3.2633e-02  1.6390e-02  3.9682e-02  1.1450e+00  3.2616e-02  5.2180e-03  4.4110e-03  0:04:26 1900
   101  3.3273e-02  1.6012e-02  3.7315e-02  1.1184e+00  3.3256e-02  5.1039e-03  4.3182e-03  0:03:33 1899
   102  3.4262e-02  1.5727e-02  3.5211e-02  1.0919e+00  3.4244e-02  4.9879e-03  4.1858e-03  0:02:50 1898
   103  3.5203e-02  1.5315e-02  3.3385e-02  1.0647e+00  3.5185e-02  4.8537e-03  4.0777e-03  0:02:16 1897
   104  3.6366e-02  1.4946e-02  3.2370e-02  1.0361e+00  3.6346e-02  4.7717e-03  3.9605e-03  0:01:49 1896
   105  3.6321e-02  1.4786e-02  3.1676e-02  1.0042e+00  3.6301e-02  4.6731e-03  3.8735e-03  0:01:27 1895
   106  3.4978e-02  1.4839e-02  3.1360e-02  9.7281e-01  3.4958e-02  4.6083e-03  3.7794e-03  0:01:10 1894
   107  3.2604e-02  1.4959e-02  3.1115e-02  9.4517e-01  3.2584e-02  4.5456e-03  3.7279e-03  0:00:56 1893
   108  3.0233e-02  1.4941e-02  3.1236e-02  9.2258e-01  3.0213e-02  4.4810e-03  3.6694e-03  0:07:03 1892
   109  2.8446e-02  1.4998e-02  3.1042e-02  9.0482e-01  2.8427e-02  4.4247e-03  3.6327e-03  0:05:38 1891
   110  2.8165e-02  1.5020e-02  3.0480e-02  8.8675e-01  2.8148e-02  4.4043e-03  3.6159e-03  0:04:30 1890

  iter  continuity  x-velocity  y-velocity  z-velocity      energy           k       omega     time/iter
   111  2.8603e-02  1.4919e-02  2.9843e-02  8.7238e-01  2.8586e-02  4.3466e-03  3.5957e-03  0:03:36 1889
   112  2.9739e-02  1.4670e-02  2.9078e-02  8.6129e-01  2.9722e-02  4.3431e-03  3.6125e-03  0:02:53 1888
   113  3.1009e-02  1.4291e-02  2.8484e-02  8.4806e-01  3.0992e-02  4.3233e-03  3.6157e-03  0:02:18 1887
   114  3.2428e-02  1.3890e-02  2.7762e-02  8.3260e-01  3.2411e-02  4.2789e-03  3.6171e-03  0:01:50 1886
   115  3.3794e-02  1.3400e-02  2.7218e-02  8.1961e-01  3.3777e-02  4.2878e-03  3.6047e-03  0:01:28 1885
   116  3.4927e-02  1.2859e-02  2.7093e-02  7.8548e-01  3.4909e-02  4.2794e-03  3.5965e-03  0:01:11 1884
   117  3.4764e-02  1.2465e-02  2.7134e-02  7.4766e-01  3.4746e-02  4.2707e-03  3.5952e-03  0:00:56 1883
   118  3.3887e-02  1.2113e-02  2.7225e-02  7.1694e-01  3.3869e-02  4.2576e-03  3.5616e-03  0:00:45 1882
   119  3.2103e-02  1.1701e-02  2.7694e-02  6.8974e-01  3.2085e-02  4.2447e-03  3.5310e-03  0:06:52 1881
   120  3.0109e-02  1.1431e-02  2.7932e-02  6.5208e-01  3.0092e-02  4.1701e-03  3.5234e-03  0:05:30 1880
   121  2.8763e-02  1.1201e-02  2.7993e-02  6.1573e-01  2.8747e-02  4.1275e-03  3.5451e-03  0:04:24 1879

  iter  continuity  x-velocity  y-velocity  z-velocity      energy           k       omega     time/iter
   122  2.7712e-02  1.0989e-02  2.7543e-02  5.7423e-01  2.7697e-02  4.0648e-03  3.4854e-03  0:03:31 1878
   123  2.7146e-02  1.0800e-02  2.6545e-02  5.2825e-01  2.7131e-02  4.0430e-03  3.4802e-03  0:02:49 1877
   124  2.6953e-02  1.0672e-02  2.5393e-02  4.9141e-01  2.6939e-02  3.9315e-03  3.3924e-03  0:02:15 1876
   125  2.7049e-02  1.0662e-02  2.3989e-02  4.5893e-01  2.7034e-02  3.8561e-03  3.3257e-03  0:01:48 1875
   126  2.7284e-02  1.0530e-02  2.2569e-02  4.3355e-01  2.7269e-02  3.7737e-03  3.2306e-03  0:01:26 1874
   127  2.7699e-02  1.0486e-02  2.1701e-02  4.1808e-01  2.7683e-02  3.6912e-03  3.1534e-03  0:01:09 1873
   128  2.7479e-02  1.0486e-02  2.0769e-02  4.1000e-01  2.7463e-02  3.6441e-03  3.1009e-03  0:00:55 1872
   129  2.6683e-02  1.0510e-02  2.0204e-02  4.1447e-01  2.6667e-02  3.5860e-03  3.0354e-03  0:06:58 1871
   130  2.5070e-02  1.0530e-02  1.9918e-02  4.2904e-01  2.5054e-02  3.5287e-03  2.9716e-03  0:05:34 1870
   131  2.2502e-02  1.0581e-02  1.9778e-02  4.5488e-01  2.2486e-02  3.4983e-03  2.9506e-03  0:04:27 1869
   132  2.0667e-02  1.0722e-02  1.9581e-02  4.9135e-01  2.0652e-02  3.4748e-03  2.9490e-03  0:03:34 1868

  iter  continuity  x-velocity  y-velocity  z-velocity      energy           k       omega     time/iter
   133  1.9946e-02  1.0800e-02  1.9324e-02  5.3305e-01  1.9931e-02  3.4537e-03  2.9205e-03  0:02:51 1867
   134  2.0873e-02  1.0755e-02  1.9124e-02  5.7638e-01  2.0858e-02  3.4189e-03  2.8966e-03  0:02:17 1866
   135  2.2348e-02  1.0645e-02  1.8931e-02  6.2005e-01  2.2333e-02  3.4267e-03  2.9119e-03  0:01:49 1865
   136  2.3769e-02  1.0524e-02  1.8735e-02  6.6669e-01  2.3754e-02  3.4308e-03  2.8901e-03  0:01:27 1864
   137  2.5395e-02  1.0348e-02  1.8532e-02  7.1580e-01  2.5379e-02  3.4210e-03  2.8996e-03  0:01:10 1863
   138  2.6667e-02  1.0101e-02  1.8470e-02  7.6006e-01  2.6650e-02  3.4124e-03  2.8784e-03  0:07:08 1862
   139  2.7553e-02  9.8816e-03  1.8521e-02  7.9856e-01  2.7536e-02  3.4421e-03  2.8809e-03  0:05:42 1861
   140  2.7935e-02  9.7070e-03  1.8507e-02  8.3629e-01  2.7918e-02  3.4304e-03  2.8785e-03  0:04:34 1860
   141  2.7196e-02  9.4561e-03  1.8856e-02  8.6769e-01  2.7179e-02  3.4207e-03  2.8639e-03  0:03:39 1859
   142  2.6321e-02  9.2586e-03  1.9368e-02  8.9379e-01  2.6304e-02  3.4407e-03  2.8518e-03  0:02:55 1858
   143  2.4681e-02  9.1365e-03  1.9655e-02  9.0803e-01  2.4665e-02  3.4070e-03  2.8614e-03  0:02:20 1857

  iter  continuity  x-velocity  y-velocity  z-velocity      energy           k       omega     time/iter
   144  2.3553e-02  9.0233e-03  1.9733e-02  9.1655e-01  2.3537e-02  3.4024e-03  2.8436e-03  0:01:52 1856
   145  2.2209e-02  8.8095e-03  1.9643e-02  9.1757e-01  2.2193e-02  3.4025e-03  2.8388e-03  0:01:29 1855
   146  2.1768e-02  8.6477e-03  1.9304e-02  9.1771e-01  2.1753e-02  3.3771e-03  2.8226e-03  0:01:12 1854
   147  2.1604e-02  8.5537e-03  1.8810e-02  9.1433e-01  2.1589e-02  3.3268e-03  2.8138e-03  0:00:57 1853
   148  2.1857e-02  8.3435e-03  1.8127e-02  9.0722e-01  2.1842e-02  3.2696e-03  2.7933e-03  0:06:56 1852
   149  2.2212e-02  8.1606e-03  1.7365e-02  8.9782e-01  2.2197e-02  3.2177e-03  2.7257e-03  0:05:33 1851
   150  2.2541e-02  8.0336e-03  1.6626e-02  8.8492e-01  2.2526e-02  3.1871e-03  2.6777e-03  0:04:26 1850
   151  2.2952e-02  7.9105e-03  1.6109e-02  8.6906e-01  2.2936e-02  3.1556e-03  2.6006e-03  0:03:33 1849
   152  2.3232e-02  7.8414e-03  1.5761e-02  8.4892e-01  2.3215e-02  3.0861e-03  2.4995e-03  0:02:50 1848
   153  2.2487e-02  7.8201e-03  1.5608e-02  8.2651e-01  2.2470e-02  3.0548e-03  2.4419e-03  0:02:16 1847
   154  2.1170e-02  7.9683e-03  1.5641e-02  8.0180e-01  2.1154e-02  3.0383e-03  2.3911e-03  0:01:49 1846

  iter  continuity  x-velocity  y-velocity  z-velocity      energy           k       omega     time/iter
   155  1.9207e-02  8.1370e-03  1.5540e-02  7.7555e-01  1.9191e-02  2.9934e-03  2.3616e-03  0:01:27 1845
   156  1.7904e-02  8.2400e-03  1.5603e-02  7.4944e-01  1.7889e-02  2.9788e-03  2.3281e-03  0:01:10 1844
   157  1.7685e-02  8.3198e-03  1.5667e-02  7.2447e-01  1.7670e-02  2.9436e-03  2.3119e-03  0:07:04 1843
   158  1.8324e-02  8.4356e-03  1.5639e-02  6.9965e-01  1.8309e-02  2.9296e-03  2.3102e-03  0:05:39 1842
   159  1.9398e-02  8.4751e-03  1.5546e-02  6.7623e-01  1.9384e-02  2.9455e-03  2.2982e-03  0:04:31 1841
   160  2.1269e-02  8.3844e-03  1.5460e-02  6.5602e-01  2.1253e-02  2.9332e-03  2.3064e-03  0:03:37 1840
   161  2.3219e-02  8.3365e-03  1.5398e-02  6.3748e-01  2.3202e-02  2.9511e-03  2.3011e-03  0:02:53 1839
   162  2.4842e-02  8.2249e-03  1.5390e-02  6.2043e-01  2.4824e-02  2.9866e-03  2.3156e-03  0:02:19 1838
   163  2.6071e-02  8.1361e-03  1.5431e-02  9.8491e-01  2.6052e-02  2.9872e-03  2.3115e-03  0:01:51 1837
   164  2.6229e-02  8.0197e-03  1.5593e-02  9.1067e-01  2.6211e-02  3.0011e-03  2.3042e-03  0:01:29 1836
   165  2.6256e-02  7.9362e-03  1.5940e-02  9.2075e-01  2.6239e-02  3.0281e-03  2.3186e-03  0:01:11 1835

  iter  continuity  x-velocity  y-velocity  z-velocity      energy           k       omega     time/iter
   166  2.5515e-02  7.8411e-03  1.6157e-02  9.1820e-01  2.5498e-02  3.0431e-03  2.3184e-03  0:00:57 1834
   167  2.4110e-02  7.7395e-03  1.6305e-02  8.1950e-01  2.4094e-02  3.0136e-03  2.3130e-03  0:06:52 1833
   168  2.2781e-02  7.7109e-03  1.6479e-02  7.8116e-01  2.2766e-02  3.0194e-03  2.3072e-03  0:05:29 1832
   169  2.1513e-02  7.5945e-03  1.6335e-02  7.6833e-01  2.1499e-02  2.9900e-03  2.2982e-03  0:04:23 1831
   170  2.1074e-02  7.5054e-03  1.6070e-02  7.5492e-01  2.1061e-02  2.9825e-03  2.2819e-03  0:03:31 1830
   171  2.0928e-02  7.4203e-03  1.5666e-02  7.7703e-01  2.0915e-02  2.9189e-03  2.2245e-03  0:02:48 1829
   172  2.1174e-02  7.3362e-03  1.5062e-02  7.9168e-01  2.1161e-02  2.8990e-03  2.1958e-03  0:02:15 1828
   173  2.2049e-02  7.2463e-03  1.4673e-02  7.7252e-01  2.2035e-02  2.8478e-03  2.1245e-03  0:01:48 1827
   174  2.2794e-02  7.2459e-03  1.4412e-02  7.2149e-01  2.2780e-02  2.8061e-03  2.0967e-03  0:01:26 1826
   175  2.3241e-02  7.3575e-03  1.4164e-02  6.7562e-01  2.3227e-02  2.7794e-03  2.0495e-03  0:01:09 1825
   176  2.3298e-02  7.5004e-03  1.4157e-02  6.3777e-01  2.3284e-02  2.7155e-03  1.9927e-03  0:07:00 1824

  iter  continuity  x-velocity  y-velocity  z-velocity      energy           k       omega     time/iter
   177  2.2854e-02  7.6780e-03  1.4394e-02  6.0847e-01  2.2840e-02  2.6924e-03  1.9595e-03  0:05:36 1823
   178  2.1669e-02  7.8592e-03  1.4726e-02  5.9029e-01  2.1655e-02  2.6642e-03  1.9463e-03  0:04:28 1822
   179  2.0129e-02  8.1473e-03  1.5050e-02  5.8438e-01  2.0116e-02  2.6334e-03  1.9351e-03  0:03:35 1821
   180  1.8822e-02  8.3784e-03  1.5339e-02  5.7706e-01  1.8809e-02  2.6270e-03  1.9265e-03  0:02:52 1820
   181  1.8245e-02  8.6030e-03  1.5558e-02  5.7513e-01  1.8233e-02  2.6002e-03  1.9336e-03  0:02:17 1819
   182  1.8648e-02  8.6437e-03  1.5768e-02  5.6683e-01  1.8635e-02  2.6157e-03  1.9492e-03  0:01:50 1818
   183  1.9932e-02  8.6308e-03  1.5836e-02  5.5183e-01  1.9919e-02  2.6249e-03  1.9670e-03  0:01:28 1817
   184  2.1759e-02  8.6122e-03  1.5987e-02  5.4487e-01  2.1744e-02  2.6242e-03  1.9698e-03  0:01:10 1816
   185  2.3504e-02  8.5877e-03  1.6162e-02  5.3650e-01  2.3488e-02  2.6635e-03  1.9794e-03  0:00:56 1815
   186  2.5472e-02  8.4324e-03  1.6290e-02  5.3427e-01  2.5455e-02  2.6850e-03  2.0045e-03  0:06:48 1814
   187  2.6986e-02  8.2907e-03  1.6685e-02  5.3311e-01  2.6968e-02  2.7186e-03  1.9949e-03  0:05:26 1813

  iter  continuity  x-velocity  y-velocity  z-velocity      energy           k       omega     time/iter
   188  2.8509e-02  8.2762e-03  1.7076e-02  5.3974e-01  2.8490e-02  2.7610e-03  2.0044e-03  0:04:21 1812
   189  2.9417e-02  8.2814e-03  1.7493e-02  5.7124e-01  2.9399e-02  2.7847e-03  2.0181e-03  0:03:28 1811
   190  2.9256e-02  8.3349e-03  1.8259e-02  6.0914e-01  2.9238e-02  2.8002e-03  2.0190e-03  0:02:47 1810
   191  2.8471e-02  8.4764e-03  1.9096e-02  6.4880e-01  2.8454e-02  2.7980e-03  2.0203e-03  0:02:13 1809
   192  2.6907e-02  8.5383e-03  1.9568e-02  6.8822e-01  2.6890e-02  2.8138e-03  2.0202e-03  0:01:47 1808
   193  2.5329e-02  8.6091e-03  2.0024e-02  7.2165e-01  2.5314e-02  2.8043e-03  2.0179e-03  0:01:25 1807
   194  2.3624e-02  8.5541e-03  2.0220e-02  7.3523e-01  2.3610e-02  2.8029e-03  2.0329e-03  0:01:08 1806
   195  2.2010e-02  8.4770e-03  2.0129e-02  7.3244e-01  2.1996e-02  2.7474e-03  1.9988e-03  0:06:55 1805
   196  2.1069e-02  8.3394e-03  1.9738e-02  7.1437e-01  2.1056e-02  2.7155e-03  1.9896e-03  0:05:32 1804
   197  2.0618e-02  8.1050e-03  1.9269e-02  6.8858e-01  2.0606e-02  2.6519e-03  1.9762e-03  0:04:26 1803
   198  2.0562e-02  7.8916e-03  1.8670e-02  6.6412e-01  2.0549e-02  2.6083e-03  1.9295e-03  0:03:32 1802

  iter  continuity  x-velocity  y-velocity  z-velocity      energy           k       omega     time/iter
   199  2.0847e-02  7.6741e-03  1.8110e-02  6.3532e-01  2.0834e-02  2.5564e-03  1.9008e-03  0:02:50 1801
   200  2.1550e-02  7.4527e-03  1.7594e-02  6.0555e-01  2.1536e-02  2.4844e-03  1.8424e-03  0:02:16 1800
   201  2.2352e-02  7.3621e-03  1.7365e-02  5.8286e-01  2.2338e-02  2.4315e-03  1.7837e-03  0:01:49 1799
   202  2.3102e-02  7.4498e-03  1.7061e-02  5.7358e-01  2.3087e-02  2.3970e-03  1.7564e-03  0:01:27 1798
   203  2.3398e-02  7.6226e-03  1.6999e-02  5.7817e-01  2.3382e-02  2.3617e-03  1.7125e-03  0:01:09 1797
   204  2.3367e-02  7.8818e-03  1.7165e-02  6.0018e-01  2.3350e-02  2.3318e-03  1.6972e-03  0:06:55 1796
   205  2.2782e-02  8.2357e-03  1.7522e-02  6.3300e-01  2.2766e-02  2.2909e-03  1.6566e-03  0:05:32 1795
   206  2.1402e-02  8.6134e-03  1.7955e-02  6.6645e-01  2.1386e-02  2.2870e-03  1.6570e-03  0:04:25 1794
   207  2.0109e-02  9.0537e-03  1.8302e-02  6.9497e-01  2.0093e-02  2.2796e-03  1.6741e-03  0:03:32 1793
   208  1.9071e-02  9.4399e-03  1.8418e-02  7.1649e-01  1.9056e-02  2.2751e-03  1.6856e-03  0:02:49 1792
   209  1.8781e-02  9.6240e-03  1.8441e-02  7.2976e-01  1.8766e-02  2.3015e-03  1.7116e-03  0:02:16 1791

  iter  continuity  x-velocity  y-velocity  z-velocity      energy           k       omega     time/iter
   210  1.9535e-02  9.7239e-03  1.8388e-02  7.2488e-01  1.9519e-02  2.3101e-03  1.7473e-03  0:01:48 1790
   211  2.0940e-02  9.7579e-03  1.8305e-02  7.2413e-01  2.0924e-02  2.3362e-03  1.7611e-03  0:01:27 1789
   212  2.2404e-02  9.6325e-03  1.8088e-02  7.1505e-01  2.2388e-02  2.3641e-03  1.7864e-03  0:01:09 1788
   213  2.4166e-02  9.4489e-03  1.7811e-02  6.9119e-01  2.4149e-02  2.4170e-03  1.8184e-03  0:06:53 1787
   214  2.5732e-02  9.1902e-03  1.7658e-02  6.6568e-01  2.5715e-02  2.3890e-03  1.8236e-03  0:05:30 1786
   215  2.7074e-02  8.9933e-03  1.7581e-02  6.4131e-01  2.7056e-02  2.4413e-03  1.8245e-03  0:04:24 1785
   216  2.7680e-02  8.7764e-03  1.7569e-02  6.2329e-01  2.7663e-02  2.4653e-03  1.8341e-03  0:03:31 1784
   217  2.7507e-02  8.5654e-03  1.7880e-02  6.1263e-01  2.7491e-02  2.4703e-03  1.8133e-03  0:02:49 1783
   218  2.6648e-02  8.3419e-03  1.8196e-02  6.0961e-01  2.6633e-02  2.4865e-03  1.8287e-03  0:02:15 1782
   219  2.4846e-02  8.1456e-03  1.8394e-02  7.5895e-01  2.4832e-02  2.4755e-03  1.8048e-03  0:01:48 1781
   220  2.2724e-02  7.9632e-03  1.8567e-02  6.4761e-01  2.2711e-02  2.4614e-03  1.8063e-03  0:01:26 1780

  iter  continuity  x-velocity  y-velocity  z-velocity      energy           k       omega     time/iter
   221  2.1324e-02  7.8046e-03  1.8583e-02  6.1096e-01  2.1312e-02  2.4468e-03  1.8221e-03  0:01:09 1779
   222  2.0611e-02  7.6508e-03  1.8253e-02  5.8087e-01  2.0601e-02  2.4199e-03  1.8257e-03  0:06:51 1778
   223  2.0755e-02  7.5288e-03  1.7856e-02  5.8094e-01  2.0744e-02  2.3926e-03  1.8036e-03  0:05:28 1777
   224  2.1194e-02  7.4285e-03  1.7359e-02  5.6097e-01  2.1184e-02  2.3479e-03  1.7853e-03  0:04:23 1776
   225  2.1541e-02  7.3624e-03  1.6749e-02  5.4148e-01  2.1530e-02  2.3029e-03  1.7613e-03  0:03:30 1775
   226  2.2338e-02  7.3026e-03  1.6331e-02  5.2385e-01  2.2327e-02  2.2571e-03  1.7168e-03  0:02:48 1774
   227  2.2714e-02  7.3034e-03  1.5819e-02  5.0287e-01  2.2702e-02  2.2194e-03  1.6839e-03  0:02:14 1773
   228  2.2676e-02  7.3048e-03  1.5478e-02  4.8279e-01  2.2663e-02  2.1685e-03  1.6479e-03  0:01:47 1772
   229  2.2212e-02  7.3704e-03  1.5376e-02  4.6939e-01  2.2200e-02  2.1183e-03  1.6140e-03  0:01:26 1771
   230  2.0568e-02  7.4359e-03  1.5272e-02  4.5104e-01  2.0556e-02  2.1098e-03  1.6125e-03  0:01:09 1770
   231  1.8760e-02  7.6083e-03  1.5190e-02  4.3905e-01  1.8748e-02  2.0635e-03  1.5912e-03  0:00:55 1769

  iter  continuity  x-velocity  y-velocity  z-velocity      energy           k       omega     time/iter
   232  1.7115e-02  7.7459e-03  1.5138e-02  4.2851e-01  1.7104e-02  2.0488e-03  1.5804e-03  0:06:37 1768
   233  1.6683e-02  7.7987e-03  1.5060e-02  4.2875e-01  1.6671e-02  2.0370e-03  1.5854e-03  0:05:18 1767
   234  1.7211e-02  7.8143e-03  1.4920e-02  4.2485e-01  1.7200e-02  2.0236e-03  1.5937e-03  0:04:14 1766
   235  1.8229e-02  7.8387e-03  1.4680e-02  4.1941e-01  1.8217e-02  2.0377e-03  1.6064e-03  0:03:23 1765
   236  1.9743e-02  7.7308e-03  1.4447e-02  4.0777e-01  1.9730e-02  2.0431e-03  1.6092e-03  0:02:42 1764
   237  2.1247e-02  7.6086e-03  1.4187e-02  3.9412e-01  2.1233e-02  2.0335e-03  1.6180e-03  0:02:10 1763
   238  2.2439e-02  7.4207e-03  1.3981e-02  3.8453e-01  2.2425e-02  2.0553e-03  1.6220e-03  0:07:36 1762
   239  2.3222e-02  7.2841e-03  1.3806e-02  3.7795e-01  2.3208e-02  2.0703e-03  1.6318e-03  0:06:05 1761
   240  2.3039e-02  7.0764e-03  1.3650e-02  3.7026e-01  2.3025e-02  2.0485e-03  1.6176e-03  0:04:52 1760
   241  2.2434e-02  6.9264e-03  1.3707e-02  3.6534e-01  2.2421e-02  2.0606e-03  1.6103e-03  0:03:53 1759
   242  2.1024e-02  6.8091e-03  1.3767e-02  3.6556e-01  2.1012e-02  2.0682e-03  1.6115e-03  0:03:06 1758

  iter  continuity  x-velocity  y-velocity  z-velocity      energy           k       omega     time/iter
   243  1.9108e-02  6.6206e-03  1.3696e-02  3.6204e-01  1.9097e-02  2.0583e-03  1.5958e-03  0:02:29 1757
   244  1.7412e-02  6.4659e-03  1.3533e-02  3.5977e-01  1.7402e-02  2.0457e-03  1.6052e-03  0:01:59 1756
   245  1.6062e-02  6.3010e-03  1.3302e-02  3.5432e-01  1.6053e-02  2.0419e-03  1.6023e-03  0:01:35 1755
   246  1.5701e-02  6.1456e-03  1.2979e-02  3.4859e-01  1.5693e-02  2.0074e-03  1.5857e-03  0:01:16 1754
   247  1.5690e-02  6.0514e-03  1.2603e-02  3.4106e-01  1.5682e-02  1.9715e-03  1.5670e-03  0:06:52 1753
   248  1.6045e-02  5.8898e-03  1.2170e-02  3.3422e-01  1.6037e-02  1.9421e-03  1.5289e-03  0:05:29 1752
   249  1.6743e-02  5.7949e-03  1.1808e-02  3.2337e-01  1.6735e-02  1.9028e-03  1.4829e-03  0:04:23 1751
   250  1.7075e-02  5.7224e-03  1.1419e-02  3.1207e-01  1.7067e-02  1.8889e-03  1.4638e-03  0:03:30 1750
   251  1.7344e-02  5.6807e-03  1.1123e-02  3.0368e-01  1.7335e-02  1.8402e-03  1.4284e-03  0:02:48 1749
   252  1.7441e-02  5.6958e-03  1.0962e-02  2.9637e-01  1.7432e-02  1.7988e-03  1.4018e-03  0:02:14 1748
   253  1.6862e-02  5.7541e-03  1.0958e-02  2.9062e-01  1.6853e-02  1.7700e-03  1.3653e-03  0:01:48 1747

  iter  continuity  x-velocity  y-velocity  z-velocity      energy           k       omega     time/iter
   254  1.5802e-02  5.8733e-03  1.0990e-02  2.8514e-01  1.5793e-02  1.7441e-03  1.3544e-03  0:07:15 1746
   255  1.4528e-02  6.0352e-03  1.0997e-02  2.7895e-01  1.4519e-02  1.7296e-03  1.3434e-03  0:05:48 1745
   256  1.3782e-02  6.1411e-03  1.0971e-02  2.7324e-01  1.3773e-02  1.6993e-03  1.3397e-03  0:04:38 1744
   257  1.3740e-02  6.1936e-03  1.0948e-02  2.6877e-01  1.3732e-02  1.6907e-03  1.3540e-03  0:03:42 1743
   258  1.3855e-02  6.2471e-03  1.0882e-02  2.6709e-01  1.3846e-02  1.7031e-03  1.3611e-03  0:02:58 1742
   259  1.4496e-02  6.2074e-03  1.0817e-02  2.6907e-01  1.4487e-02  1.6932e-03  1.3631e-03  0:02:22 1741
   260  1.5784e-02  6.1191e-03  1.0682e-02  2.6910e-01  1.5775e-02  1.7087e-03  1.3708e-03  0:01:54 1740
   261  1.7063e-02  6.0403e-03  1.0563e-02  2.6946e-01  1.7053e-02  1.7129e-03  1.3755e-03  0:01:31 1739
   262  1.8456e-02  5.9020e-03  1.0512e-02  2.7220e-01  1.8445e-02  1.7263e-03  1.3706e-03  0:07:00 1738
   263  1.9282e-02  5.7760e-03  1.0446e-02  2.7585e-01  1.9272e-02  1.7131e-03  1.3680e-03  0:05:36 1737
   264  1.9372e-02  5.6548e-03  1.0630e-02  2.7756e-01  1.9361e-02  1.7281e-03  1.3593e-03  0:04:29 1736

  iter  continuity  x-velocity  y-velocity  z-velocity      energy           k       omega     time/iter
   265  1.9013e-02  5.5419e-03  1.0888e-02  2.7833e-01  1.9003e-02  1.7278e-03  1.3598e-03  0:03:35 1735
   266  1.8078e-02  5.4696e-03  1.1173e-02  2.7851e-01  1.8069e-02  1.7238e-03  1.3482e-03  0:02:52 1734
   267  1.6943e-02  5.4244e-03  1.1306e-02  2.7600e-01  1.6935e-02  1.7093e-03  1.3318e-03  0:02:17 1733
   268  1.5670e-02  5.3303e-03  1.1348e-02  2.7231e-01  1.5663e-02  1.7159e-03  1.3324e-03  0:01:50 1732
   269  1.4905e-02  5.2395e-03  1.1353e-02  2.6845e-01  1.4898e-02  1.6930e-03  1.3227e-03  0:01:28 1731
   270  1.4627e-02  5.1904e-03  1.1270e-02  2.6241e-01  1.4620e-02  1.6839e-03  1.3363e-03  0:06:56 1730
   271  1.4797e-02  5.1069e-03  1.1042e-02  2.5555e-01  1.4791e-02  1.6496e-03  1.3201e-03  0:05:33 1729
   272  1.5303e-02  5.0353e-03  1.0744e-02  2.4925e-01  1.5297e-02  1.6252e-03  1.2790e-03  0:04:26 1728
   273  1.5919e-02  4.9646e-03  1.0489e-02  2.4273e-01  1.5912e-02  1.6049e-03  1.2763e-03  0:03:33 1727
   274  1.6256e-02  4.8635e-03  1.0226e-02  2.4991e-01  1.6249e-02  1.5736e-03  1.2465e-03  0:02:50 1726
   275  1.6591e-02  4.8375e-03  1.0058e-02  2.3422e-01  1.6583e-02  1.5326e-03  1.2219e-03  0:02:16 1725

  iter  continuity  x-velocity  y-velocity  z-velocity      energy           k       omega     time/iter
   276  1.6282e-02  4.8698e-03  9.9819e-03  2.2193e-01  1.6274e-02  1.5181e-03  1.1926e-03  0:01:49 1724
   277  1.5508e-02  5.0154e-03  9.9046e-03  2.1272e-01  1.5500e-02  1.4928e-03  1.1744e-03  0:01:27 1723
   278  1.4691e-02  5.1300e-03  9.9087e-03  2.0226e-01  1.4683e-02  1.4652e-03  1.1687e-03  0:06:54 1722
   279  1.3918e-02  5.2364e-03  9.9412e-03  1.9251e-01  1.3911e-02  1.4405e-03  1.1466e-03  0:05:31 1721
   280  1.3434e-02  5.3613e-03  9.9749e-03  1.8559e-01  1.3426e-02  1.4369e-03  1.1492e-03  0:04:25 1720
   281  1.3260e-02  5.4770e-03  9.8685e-03  1.8215e-01  1.3253e-02  1.4307e-03  1.1563e-03  0:03:32 1719
   282  1.3724e-02  5.4838e-03  9.8311e-03  1.8145e-01  1.3717e-02  1.4295e-03  1.1537e-03  0:02:49 1718
   283  1.4792e-02  5.4806e-03  9.7025e-03  1.8313e-01  1.4784e-02  1.4352e-03  1.1728e-03  0:02:15 1717
   284  1.5755e-02  5.4526e-03  9.5534e-03  1.8757e-01  1.5746e-02  1.4404e-03  1.1796e-03  0:01:48 1716
   285  1.6493e-02  5.3766e-03  9.4632e-03  1.9490e-01  1.6485e-02  1.4553e-03  1.1954e-03  0:01:26 1715
   286  1.6859e-02  5.2732e-03  9.3714e-03  2.0123e-01  1.6851e-02  1.4522e-03  1.2008e-03  0:01:09 1714

  iter  continuity  x-velocity  y-velocity  z-velocity      energy           k       omega     time/iter
   287  1.6973e-02  5.1657e-03  9.3703e-03  2.0581e-01  1.6964e-02  1.4791e-03  1.1977e-03  0:06:38 1713
   288  1.6636e-02  5.0787e-03  9.4520e-03  2.0776e-01  1.6628e-02  1.4852e-03  1.1965e-03  0:05:18 1712
   289  1.5612e-02  5.0104e-03  9.5269e-03  2.0790e-01  1.5605e-02  1.4898e-03  1.1910e-03  0:04:14 1711
   290  1.4552e-02  4.9059e-03  9.5686e-03  2.0751e-01  1.4546e-02  1.4884e-03  1.1917e-03  0:03:23 1710
   291  1.3411e-02  4.7918e-03  9.5150e-03  2.0452e-01  1.3405e-02  1.4937e-03  1.1909e-03  0:02:43 1709
   292  1.2945e-02  4.6997e-03  9.4387e-03  2.0140e-01  1.2939e-02  1.5001e-03  1.1857e-03  0:02:10 1708
   293  1.2778e-02  4.6444e-03  9.3435e-03  1.9624e-01  1.2773e-02  1.4941e-03  1.1943e-03  0:01:44 1707
   294  1.3109e-02  4.5671e-03  9.1572e-03  1.9273e-01  1.3103e-02  1.4777e-03  1.1837e-03  0:07:04 1706
   295  1.3668e-02  4.5123e-03  8.9229e-03  1.8843e-01  1.3663e-02  1.4629e-03  1.1725e-03  0:05:39 1705
   296  1.4010e-02  4.4036e-03  8.7084e-03  1.8163e-01  1.4005e-02  1.4536e-03  1.1589e-03  0:04:31 1704
   297  1.4435e-02  4.3601e-03  8.5370e-03  1.7567e-01  1.4429e-02  1.4421e-03  1.1494e-03  0:03:37 1703

  iter  continuity  x-velocity  y-velocity  z-velocity      energy           k       omega     time/iter
   298  1.4403e-02  4.3436e-03  8.4314e-03  1.6883e-01  1.4397e-02  1.4158e-03  1.1208e-03  0:02:53 1702
   299  1.3953e-02  4.3962e-03  8.3022e-03  1.6318e-01  1.3947e-02  1.4220e-03  1.1062e-03  0:02:19 1701
   300  1.3408e-02  4.4353e-03  8.2634e-03  1.5637e-01  1.3402e-02  1.4011e-03  1.1022e-03  0:01:51 1700
   301  1.2786e-02  4.4897e-03  8.2962e-03  1.5135e-01  1.2780e-02  1.3848e-03  1.0817e-03  0:07:08 1699
   302  1.2001e-02  4.5623e-03  8.2714e-03  1.4767e-01  1.1995e-02  1.3888e-03  1.0778e-03  0:05:43 1698
   303  1.1599e-02  4.6534e-03  8.2077e-03  1.4616e-01  1.1594e-02  1.3799e-03  1.0757e-03  0:04:34 1697
   304  1.1719e-02  4.6561e-03  8.1619e-03  1.4669e-01  1.1714e-02  1.3749e-03  1.0740e-03  0:03:39 1696
   305  1.2380e-02  4.6359e-03  8.0474e-03  1.4843e-01  1.2375e-02  1.3820e-03  1.0807e-03  0:02:55 1695
   306  1.3356e-02  4.6062e-03  7.9642e-03  1.5336e-01  1.3350e-02  1.3823e-03  1.0835e-03  0:02:20 1694
   307  1.3961e-02  4.5591e-03  7.9092e-03  1.5817e-01  1.3955e-02  1.3888e-03  1.0936e-03  0:01:52 1693
   308  1.4268e-02  4.4813e-03  7.8160e-03  1.6284e-01  1.4261e-02  1.3973e-03  1.1004e-03  0:01:29 1692

  iter  continuity  x-velocity  y-velocity  z-velocity      energy           k       omega     time/iter
   309  1.4442e-02  4.3925e-03  7.8185e-03  1.6835e-01  1.4436e-02  1.4019e-03  1.0980e-03  0:06:50 1691
   310  1.4236e-02  4.3148e-03  7.8423e-03  1.6850e-01  1.4230e-02  1.4162e-03  1.0939e-03  0:05:28 1690
   311  1.3730e-02  4.2742e-03  7.9332e-03  1.7038e-01  1.3724e-02  1.4161e-03  1.0986e-03  0:04:22 1689
   312  1.2963e-02  4.2306e-03  8.0643e-03  1.7123e-01  1.2958e-02  1.4153e-03  1.1078e-03  0:03:29 1688
   313  1.2042e-02  4.1727e-03  8.0660e-03  1.6832e-01  1.2037e-02  1.4147e-03  1.1070e-03  0:02:47 1687
   314  1.1524e-02  4.1190e-03  8.0056e-03  1.6655e-01  1.1519e-02  1.4210e-03  1.0937e-03  0:02:14 1686
   315  1.1240e-02  4.0718e-03  7.9806e-03  1.6224e-01  1.1236e-02  1.4257e-03  1.1069e-03  0:01:47 1685
   316  1.1336e-02  4.0307e-03  7.8924e-03  1.5848e-01  1.1332e-02  1.4025e-03  1.0893e-03  0:01:26 1684
   317  1.1813e-02  3.9866e-03  7.7408e-03  1.5423e-01  1.1810e-02  1.3959e-03  1.0832e-03  0:01:08 1683
   318  1.2225e-02  3.9600e-03  7.5939e-03  1.5164e-01  1.2221e-02  1.3828e-03  1.0648e-03  0:06:31 1682
   319  1.2729e-02  3.9310e-03  7.4861e-03  1.4833e-01  1.2725e-02  1.3672e-03  1.0573e-03  0:05:13 1681

  iter  continuity  x-velocity  y-velocity  z-velocity      energy           k       omega     time/iter
   320  1.2998e-02  3.9376e-03  7.4320e-03  1.4572e-01  1.2994e-02  1.3627e-03  1.0478e-03  0:04:10 1680
   321  1.2948e-02  3.9737e-03  7.4125e-03  1.4428e-01  1.2943e-02  1.3381e-03  1.0179e-03  0:03:20 1679
   322  1.2577e-02  4.0773e-03  7.4412e-03  1.4272e-01  1.2572e-02  1.3325e-03  1.0211e-03  0:02:40 1678
   323  1.2147e-02  4.1657e-03  7.5027e-03  1.4097e-01  1.2142e-02  1.3232e-03  1.0118e-03  0:02:08 1677
   324  1.1713e-02  4.2499e-03  7.6321e-03  1.3999e-01  1.1709e-02  1.3136e-03  9.9776e-04  0:01:42 1676
   325  1.1327e-02  4.3435e-03  7.6739e-03  1.4083e-01  1.1322e-02  1.3114e-03  9.9817e-04  0:06:57 1675
   326  1.1301e-02  4.4596e-03  7.7346e-03  1.4522e-01  1.1296e-02  1.3093e-03  1.0036e-03  0:05:33 1674
   327  1.1668e-02  4.4898e-03  7.7732e-03  1.5287e-01  1.1664e-02  1.3091e-03  1.0130e-03  0:04:26 1673
   328  1.2454e-02  4.4799e-03  7.7172e-03  1.6214e-01  1.2449e-02  1.3084e-03  1.0156e-03  0:03:33 1672
   329  1.3619e-02  4.4638e-03  7.7138e-03  1.7286e-01  1.3614e-02  1.3215e-03  1.0162e-03  0:02:50 1671
   330  1.4606e-02  4.4279e-03  7.7603e-03  1.8447e-01  1.4600e-02  1.3255e-03  1.0211e-03  0:02:16 1670

  iter  continuity  x-velocity  y-velocity  z-velocity      energy           k       omega     time/iter
   331  1.4998e-02  4.3871e-03  7.8665e-03  1.9470e-01  1.4993e-02  1.3386e-03  1.0264e-03  0:01:49 1669
   332  1.5218e-02  4.3771e-03  8.0830e-03  2.0624e-01  1.5213e-02  1.3568e-03  1.0313e-03  0:01:27 1668
   333  1.5233e-02  4.3888e-03  8.2178e-03  2.1499e-01  1.5227e-02  1.3681e-03  1.0355e-03  0:06:43 1667
   334  1.5106e-02  4.4252e-03  8.4496e-03  2.2054e-01  1.5101e-02  1.3870e-03  1.0425e-03  0:05:22 1666
   335  1.4684e-02  4.4838e-03  8.7633e-03  2.2387e-01  1.4679e-02  1.3814e-03  1.0338e-03  0:04:18 1665
   336  1.4008e-02  4.5025e-03  8.9146e-03  2.2493e-01  1.4004e-02  1.3900e-03  1.0367e-03  0:03:26 1664
   337  1.3278e-02  4.5074e-03  9.0179e-03  2.2533e-01  1.3275e-02  1.3985e-03  1.0404e-03  0:02:45 1663
   338  1.2838e-02  4.5210e-03  9.0413e-03  2.2596e-01  1.2835e-02  1.4001e-03  1.0406e-03  0:02:12 1662
   339  1.2765e-02  4.5206e-03  9.0900e-03  2.2446e-01  1.2761e-02  1.3983e-03  1.0346e-03  0:01:45 1661
   340  1.2947e-02  4.4789e-03  8.9592e-03  2.2176e-01  1.2944e-02  1.3781e-03  1.0293e-03  0:01:24 1660
   341  1.3419e-02  4.4358e-03  8.8415e-03  2.1741e-01  1.3415e-02  1.3756e-03  1.0153e-03  0:06:39 1659

  iter  continuity  x-velocity  y-velocity  z-velocity      energy           k       omega     time/iter
   342  1.4027e-02  4.4290e-03  8.7587e-03  2.1428e-01  1.4023e-02  1.3601e-03  1.0040e-03  0:05:19 1658
   343  1.4553e-02  4.3992e-03  8.6439e-03  2.1184e-01  1.4549e-02  1.3411e-03  1.0057e-03  0:04:15 1657
   344  1.4932e-02  4.4022e-03  8.6422e-03  2.0928e-01  1.4927e-02  1.3166e-03  9.7509e-04  0:03:24 1656
   345  1.5009e-02  4.4744e-03  8.8156e-03  2.0656e-01  1.5004e-02  1.3044e-03  9.6787e-04  0:02:43 1655
   346  1.4683e-02  4.6174e-03  8.9874e-03  2.0537e-01  1.4678e-02  1.2921e-03  9.6258e-04  0:02:10 1654
   347  1.3992e-02  4.8435e-03  9.1851e-03  2.0492e-01  1.3987e-02  1.2750e-03  9.5230e-04  0:01:44 1653
   348  1.3331e-02  5.0401e-03  9.4118e-03  2.0534e-01  1.3326e-02  1.2811e-03  9.6111e-04  0:06:54 1652
   349  1.2898e-02  5.1916e-03  9.6291e-03  2.0609e-01  1.2893e-02  1.2826e-03  9.7152e-04  0:05:31 1651
   350  1.2788e-02  5.3305e-03  9.7665e-03  2.0706e-01  1.2783e-02  1.2789e-03  9.7957e-04  0:04:24 1650
   351  1.2954e-02  5.4753e-03  9.8698e-03  2.1228e-01  1.2949e-02  1.2890e-03  1.0076e-03  0:03:31 1649
   352  1.3421e-02  5.5056e-03  9.9400e-03  2.1876e-01  1.3416e-02  1.2961e-03  1.0170e-03  0:02:49 1648

  iter  continuity  x-velocity  y-velocity  z-velocity      energy           k       omega     time/iter
   353  1.4509e-02  5.5049e-03  9.9335e-03  2.2790e-01  1.4505e-02  1.3149e-03  1.0307e-03  0:02:15 1647
   354  1.5615e-02  5.4724e-03  9.9639e-03  2.3768e-01  1.5610e-02  1.3495e-03  1.0584e-03  0:01:48 1646
   355  1.6711e-02  5.4038e-03  1.0019e-02  2.4841e-01  1.6706e-02  1.3656e-03  1.0659e-03  0:01:26 1645
   356  1.7501e-02  5.3246e-03  1.0135e-02  2.5860e-01  1.7496e-02  1.3773e-03  1.0745e-03  0:01:09 1644
   357  1.7676e-02  5.3094e-03  1.0431e-02  2.7029e-01  1.7672e-02  1.4208e-03  1.0989e-03  0:06:24 1643
   358  1.7836e-02  5.3416e-03  1.0759e-02  2.8190e-01  1.7831e-02  1.4340e-03  1.1053e-03  0:05:07 1642
   359  1.7512e-02  5.3661e-03  1.1121e-02  2.9068e-01  1.7508e-02  1.4479e-03  1.1145e-03  0:04:05 1641
   360  1.6966e-02  5.4474e-03  1.1497e-02  2.9190e-01  1.6962e-02  1.4626e-03  1.1073e-03  0:03:16 1640
   361  1.6247e-02  5.5046e-03  1.1853e-02  2.8781e-01  1.6244e-02  1.4867e-03  1.1233e-03  0:02:37 1639
   362  1.5366e-02  5.4934e-03  1.2056e-02  2.7961e-01  1.5363e-02  1.4881e-03  1.1277e-03  0:02:05 1638
   363  1.4735e-02  5.4831e-03  1.2170e-02  2.7566e-01  1.4732e-02  1.4912e-03  1.1315e-03  0:01:40 1637

  iter  continuity  x-velocity  y-velocity  z-velocity      energy           k       omega     time/iter
   364  1.4665e-02  5.4720e-03  1.2203e-02  2.7002e-01  1.4662e-02  1.4951e-03  1.1578e-03  0:01:20 1636
   365  1.4867e-02  5.4427e-03  1.2091e-02  2.6334e-01  1.4864e-02  1.4728e-03  1.1540e-03  0:06:31 1635
   366  1.5447e-02  5.3709e-03  1.1881e-02  2.5748e-01  1.5444e-02  1.4690e-03  1.1363e-03  0:05:13 1634
   367  1.6106e-02  5.3039e-03  1.1718e-02  2.4985e-01  1.6103e-02  1.4573e-03  1.1399e-03  0:04:10 1633
   368  1.6789e-02  5.2705e-03  1.1564e-02  2.4246e-01  1.6785e-02  1.4415e-03  1.1271e-03  0:03:20 1632
   369  1.7225e-02  5.2530e-03  1.1430e-02  2.3601e-01  1.7221e-02  1.4199e-03  1.0992e-03  0:02:40 1631
   370  1.7450e-02  5.2984e-03  1.1496e-02  2.3089e-01  1.7445e-02  1.4184e-03  1.1003e-03  0:02:08 1630
   371  1.7099e-02  5.4143e-03  1.1642e-02  2.2592e-01  1.7093e-02  1.3936e-03  1.0920e-03  0:01:42 1629
   372  1.6327e-02  5.6605e-03  1.1751e-02  2.2407e-01  1.6322e-02  1.3826e-03  1.0696e-03  0:06:47 1628
   373  1.5290e-02  5.8761e-03  1.1888e-02  2.2263e-01  1.5284e-02  1.3757e-03  1.0610e-03  0:05:26 1627
   374  1.4533e-02  6.0496e-03  1.2068e-02  2.2355e-01  1.4527e-02  1.3690e-03  1.0771e-03  0:04:20 1626

  iter  continuity  x-velocity  y-velocity  z-velocity      energy           k       omega     time/iter
   375  1.4190e-02  6.2146e-03  1.2177e-02  2.2569e-01  1.4184e-02  1.3690e-03  1.0772e-03  0:03:28 1625
   376  1.4360e-02  6.3865e-03  1.2152e-02  2.3280e-01  1.4354e-02  1.3754e-03  1.0946e-03  0:02:46 1624
   377  1.4872e-02  6.4419e-03  1.2101e-02  2.3995e-01  1.4867e-02  1.3943e-03  1.1059e-03  0:02:13 1623
   378  1.6062e-02  6.4257e-03  1.2041e-02  2.4755e-01  1.6057e-02  1.4117e-03  1.1265e-03  0:01:46 1622
   379  1.7317e-02  6.4194e-03  1.1940e-02  2.5988e-01  1.7312e-02  1.4202e-03  1.1543e-03  0:06:49 1621
   380  1.8225e-02  6.3491e-03  1.1851e-02  2.7146e-01  1.8219e-02  1.4494e-03  1.1761e-03  0:05:27 1620
   381  1.8898e-02  6.2533e-03  1.1750e-02  2.8373e-01  1.8892e-02  1.4588e-03  1.1827e-03  0:04:22 1619
   382  1.9018e-02  6.1320e-03  1.1807e-02  2.9425e-01  1.9013e-02  1.4696e-03  1.1835e-03  0:03:29 1618
   383  1.8848e-02  6.0410e-03  1.2009e-02  2.9651e-01  1.8843e-02  1.4958e-03  1.1899e-03  0:02:47 1617
   384  1.8057e-02  5.9715e-03  1.2147e-02  3.0026e-01  1.8052e-02  1.4935e-03  1.2021e-03  0:02:14 1616
   385  1.6977e-02  5.8825e-03  1.2281e-02  3.0038e-01  1.6972e-02  1.5010e-03  1.1847e-03  0:01:47 1615

  iter  continuity  x-velocity  y-velocity  z-velocity      energy           k       omega     time/iter
   386  1.5856e-02  5.7763e-03  1.2392e-02  2.9279e-01  1.5852e-02  1.5172e-03  1.1991e-03  0:01:25 1614
   387  1.4916e-02  5.6985e-03  1.2350e-02  2.8621e-01  1.4911e-02  1.5078e-03  1.1913e-03  0:06:31 1613
   388  1.4758e-02  5.6061e-03  1.2243e-02  2.7865e-01  1.4754e-02  1.5027e-03  1.1950e-03  0:05:13 1612
   389  1.5039e-02  5.5389e-03  1.2070e-02  2.7024e-01  1.5035e-02  1.4870e-03  1.2171e-03  0:04:10 1611
   390  1.5524e-02  5.4493e-03  1.1787e-02  2.5994e-01  1.5520e-02  1.4754e-03  1.1971e-03  0:03:20 1610
   391  1.6300e-02  5.3940e-03  1.1528e-02  2.5219e-01  1.6295e-02  1.4566e-03  1.1743e-03  0:02:40 1609
   392  1.6872e-02  5.3263e-03  1.1266e-02  2.4432e-01  1.6867e-02  1.4553e-03  1.1692e-03  0:02:08 1608
   393  1.7188e-02  5.2695e-03  1.1027e-02  2.4032e-01  1.7183e-02  1.4224e-03  1.1443e-03  0:01:42 1607
   394  1.7243e-02  5.2734e-03  1.0923e-02  2.3477e-01  1.7238e-02  1.4012e-03  1.1359e-03  0:01:22 1606
   395  1.6591e-02  5.3386e-03  1.0888e-02  2.2975e-01  1.6585e-02  1.3824e-03  1.1117e-03  0:06:26 1605
   396  1.5618e-02  5.4571e-03  1.0817e-02  2.2447e-01  1.5612e-02  1.3725e-03  1.1070e-03  0:05:09 1604

  iter  continuity  x-velocity  y-velocity  z-velocity      energy           k       omega     time/iter
   397  1.4700e-02  5.5266e-03  1.0802e-02  2.2111e-01  1.4694e-02  1.3510e-03  1.0921e-03  0:04:07 1603
   398  1.4025e-02  5.5996e-03  1.0845e-02  2.2052e-01  1.4019e-02  1.3352e-03  1.0904e-03  0:03:17 1602
   399  1.3557e-02  5.6937e-03  1.0737e-02  2.2116e-01  1.3552e-02  1.3385e-03  1.0960e-03  0:02:38 1601
   400  1.3775e-02  5.7208e-03  1.0605e-02  2.2657e-01  1.3770e-02  1.3294e-03  1.0926e-03  0:02:06 1600
   401  1.4643e-02  5.6802e-03  1.0479e-02  2.3265e-01  1.4638e-02  1.3361e-03  1.0992e-03  0:01:41 1599
   402  1.5813e-02  5.6415e-03  1.0286e-02  2.4000e-01  1.5808e-02  1.3372e-03  1.1028e-03  0:01:21 1598
   403  1.6728e-02  5.5517e-03  1.0146e-02  2.4931e-01  1.6723e-02  1.3454e-03  1.1085e-03  0:06:24 1597
   404  1.7252e-02  5.4603e-03  1.0032e-02  2.5937e-01  1.7246e-02  1.3449e-03  1.1204e-03  0:05:07 1596
   405  1.7357e-02  5.3201e-03  9.9566e-03  2.6637e-01  1.7351e-02  1.3443e-03  1.1087e-03  0:04:05 1595
   406  1.7228e-02  5.2090e-03  9.9904e-03  2.6824e-01  1.7223e-02  1.3544e-03  1.1000e-03  0:03:16 1594
   407  1.6417e-02  5.1287e-03  1.0092e-02  2.6922e-01  1.6412e-02  1.3539e-03  1.0941e-03  0:02:37 1593

  iter  continuity  x-velocity  y-velocity  z-velocity      energy           k       omega     time/iter
   408  1.5317e-02  5.0379e-03  1.0173e-02  2.6647e-01  1.5312e-02  1.3447e-03  1.0870e-03  0:02:05 1592
   409  1.4025e-02  4.9569e-03  1.0115e-02  2.6110e-01  1.4021e-02  1.3481e-03  1.0955e-03  0:01:40 1591
   410  1.3222e-02  4.8357e-03  1.0021e-02  2.5470e-01  1.3217e-02  1.3326e-03  1.0830e-03  0:06:38 1590
   411  1.3010e-02  4.7706e-03  9.9258e-03  2.4918e-01  1.3006e-02  1.3306e-03  1.0853e-03  0:05:18 1589
   412  1.3089e-02  4.6937e-03  9.7458e-03  2.4276e-01  1.3085e-02  1.3056e-03  1.0651e-03  0:04:14 1588
   413  1.3630e-02  4.6311e-03  9.5141e-03  2.3321e-01  1.3625e-02  1.2893e-03  1.0539e-03  0:03:23 1587
   414  1.4303e-02  4.5654e-03  9.2706e-03  2.2526e-01  1.4299e-02  1.2627e-03  1.0360e-03  0:02:43 1586
   415  1.4649e-02  4.4796e-03  9.0465e-03  2.2159e-01  1.4644e-02  1.2538e-03  1.0202e-03  0:02:10 1585
   416  1.4941e-02  4.4406e-03  8.9292e-03  2.1606e-01  1.4936e-02  1.2347e-03  1.0066e-03  0:01:44 1584
   417  1.4618e-02  4.4398e-03  8.8470e-03  2.0924e-01  1.4612e-02  1.2010e-03  9.7134e-04  0:06:40 1583
   418  1.3970e-02  4.5203e-03  8.7998e-03  2.0524e-01  1.3965e-02  1.1936e-03  9.5550e-04  0:05:20 1582

  iter  continuity  x-velocity  y-velocity  z-velocity      energy           k       omega     time/iter
   419  1.3232e-02  4.6011e-03  8.8066e-03  2.0146e-01  1.3227e-02  1.1687e-03  9.5466e-04  0:04:16 1581
   420  1.2605e-02  4.6566e-03  8.8245e-03  2.0043e-01  1.2600e-02  1.1561e-03  9.3573e-04  0:03:24 1580
   421  1.2170e-02  4.7320e-03  8.8483e-03  2.0215e-01  1.2165e-02  1.1544e-03  9.2941e-04  0:02:43 1579
   422  1.1894e-02  4.8219e-03  8.7929e-03  2.0490e-01  1.1889e-02  1.1357e-03  9.3226e-04  0:02:11 1578
   423  1.2177e-02  4.8550e-03  8.7406e-03  2.1074e-01  1.2172e-02  1.1369e-03  9.3213e-04  0:01:44 1577
   424  1.3074e-02  4.8213e-03  8.6453e-03  2.1998e-01  1.3069e-02  1.1317e-03  9.4791e-04  0:06:39 1576
   425  1.4263e-02  4.7764e-03  8.5280e-03  2.2988e-01  1.4258e-02  1.1344e-03  9.4047e-04  0:05:19 1575
   426  1.5381e-02  4.7090e-03  8.5177e-03  2.3923e-01  1.5375e-02  1.1395e-03  9.4991e-04  0:04:15 1574
   427  1.5807e-02  4.6400e-03  8.4775e-03  2.5375e-01  1.5802e-02  1.1444e-03  9.5006e-04  0:03:24 1573
   428  1.5875e-02  4.5515e-03  8.5790e-03  2.6279e-01  1.5869e-02  1.1460e-03  9.4492e-04  0:02:43 1572
   429  1.5718e-02  4.4869e-03  8.6813e-03  2.6979e-01  1.5713e-02  1.1578e-03  9.4816e-04  0:02:10 1571

  iter  continuity  x-velocity  y-velocity  z-velocity      energy           k       omega     time/iter
   430  1.5196e-02  4.4635e-03  8.8461e-03  2.7279e-01  1.5191e-02  1.1642e-03  9.5143e-04  0:01:44 1570
   431  1.4457e-02  4.4603e-03  9.0702e-03  2.7386e-01  1.4452e-02  1.1552e-03  9.4915e-04  0:06:37 1569
   432  1.3471e-02  4.4335e-03  9.1551e-03  2.9468e-01  1.3467e-02  1.1520e-03  9.4937e-04  0:05:17 1568
   433  1.2807e-02  4.3856e-03  9.1599e-03  3.0436e-01  1.2802e-02  1.1557e-03  9.3862e-04  0:04:14 1567
   434  1.2466e-02  4.3563e-03  9.1587e-03  3.0270e-01  1.2461e-02  1.1523e-03  9.5092e-04  0:03:23 1566
   435  1.2464e-02  4.3296e-03  9.0977e-03  2.9865e-01  1.2459e-02  1.1425e-03  9.5010e-04  0:02:42 1565
   436  1.2928e-02  4.3159e-03  8.9601e-03  2.9233e-01  1.2924e-02  1.1203e-03  9.3295e-04  0:02:10 1564
   437  1.3511e-02  4.2974e-03  8.7846e-03  2.8718e-01  1.3507e-02  1.1140e-03  9.2012e-04  0:06:56 1563
   438  1.4031e-02  4.2550e-03  8.6500e-03  2.8483e-01  1.4026e-02  1.1009e-03  9.0487e-04  0:05:33 1562
   439  1.4369e-02  4.2186e-03  8.5403e-03  2.7972e-01  1.4364e-02  1.0806e-03  8.9695e-04  0:04:26 1561
   440  1.4458e-02  4.2268e-03  8.5675e-03  2.7174e-01  1.4452e-02  1.0589e-03  8.7587e-04  0:03:33 1560

  iter  continuity  x-velocity  y-velocity  z-velocity      energy           k       omega     time/iter
   441  1.4093e-02  4.3150e-03  8.6435e-03  2.6728e-01  1.4087e-02  1.0527e-03  8.5850e-04  0:02:50 1559
   442  1.3440e-02  4.4705e-03  8.7024e-03  2.6420e-01  1.3435e-02  1.0382e-03  8.5884e-04  0:02:16 1558
   443  1.2752e-02  4.5879e-03  8.8069e-03  2.6716e-01  1.2747e-02  1.0225e-03  8.5653e-04  0:07:00 1557
   444  1.2352e-02  4.7070e-03  8.9453e-03  2.7499e-01  1.2347e-02  1.0219e-03  8.5284e-04  0:05:36 1556
   445  1.1952e-02  4.8058e-03  8.9955e-03  2.8394e-01  1.1947e-02  1.0163e-03  8.5819e-04  0:04:29 1555
   446  1.2187e-02  4.9475e-03  9.0077e-03  2.9338e-01  1.2182e-02  1.0102e-03  8.6547e-04  0:03:35 1554
   447  1.2837e-02  4.9679e-03  9.0398e-03  3.0475e-01  1.2832e-02  1.0226e-03  8.7669e-04  0:02:52 1553
   448  1.3954e-02  4.9482e-03  8.9812e-03  3.1925e-01  1.3949e-02  1.0207e-03  8.9578e-04  0:02:17 1552
   449  1.5220e-02  4.9145e-03  8.9381e-03  3.3106e-01  1.5215e-02  1.0465e-03  8.9954e-04  0:01:50 1551
   450  1.6385e-02  4.8648e-03  8.9883e-03  3.4224e-01  1.6380e-02  1.0504e-03  9.1273e-04  0:06:38 1550
   451  1.6693e-02  4.8050e-03  9.0412e-03  3.5891e-01  1.6688e-02  1.0621e-03  9.1129e-04  0:05:18 1549

  iter  continuity  x-velocity  y-velocity  z-velocity      energy           k       omega     time/iter
   452  1.6749e-02  4.7500e-03  9.2742e-03  3.6441e-01  1.6743e-02  1.0823e-03  9.1843e-04  0:04:14 1548
   453  1.6523e-02  4.7336e-03  9.4658e-03  3.7364e-01  1.6517e-02  1.1002e-03  9.3271e-04  0:03:23 1547
   454  1.6047e-02  4.7670e-03  9.7493e-03  3.7872e-01  1.6041e-02  1.1125e-03  9.3522e-04  0:02:42 1546
   455  1.5371e-02  4.8112e-03  1.0054e-02  3.8173e-01  1.5366e-02  1.1115e-03  9.3348e-04  0:02:10 1545
   456  1.4495e-02  4.8094e-03  1.0183e-02  3.8278e-01  1.4490e-02  1.1263e-03  9.4499e-04  0:01:44 1544
   457  1.3818e-02  4.7922e-03  1.0275e-02  3.8633e-01  1.3814e-02  1.1342e-03  9.4517e-04  0:06:32 1543
   458  1.3523e-02  4.7883e-03  1.0303e-02  3.8938e-01  1.3519e-02  1.1306e-03  9.5674e-04  0:05:13 1542
   459  1.3595e-02  4.7827e-03  1.0275e-02  3.9145e-01  1.3591e-02  1.1261e-03  9.5666e-04  0:04:10 1541
   460  1.4052e-02  4.7660e-03  1.0127e-02  3.8625e-01  1.4047e-02  1.1144e-03  9.5565e-04  0:03:20 1540
   461  1.4688e-02  4.7305e-03  9.9515e-03  3.7842e-01  1.4684e-02  1.1107e-03  9.4245e-04  0:02:40 1539
   462  1.5349e-02  4.7057e-03  9.8467e-03  3.6770e-01  1.5344e-02  1.0977e-03  9.4014e-04  0:02:08 1538

  iter  continuity  x-velocity  y-velocity  z-velocity      energy           k       omega     time/iter
   463  1.5751e-02  4.6765e-03  9.6986e-03  3.5941e-01  1.5746e-02  1.0841e-03  9.2759e-04  0:01:42 1537
   464  1.6081e-02  4.6963e-03  9.7634e-03  3.5157e-01  1.6075e-02  1.0543e-03  8.9866e-04  0:01:22 1536
   465  1.5713e-02  4.7751e-03  9.9036e-03  3.4329e-01  1.5707e-02  1.0597e-03  8.9706e-04  0:06:12 1535
   466  1.5014e-02  4.9604e-03  1.0036e-02  3.4046e-01  1.5008e-02  1.0511e-03  8.8812e-04  0:04:58 1534
   467  1.4145e-02  5.1548e-03  1.0201e-02  3.3544e-01  1.4140e-02  1.0351e-03  8.8690e-04  0:03:58 1533
   468  1.3494e-02  5.3066e-03  1.0360e-02  3.3636e-01  1.3488e-02  1.0408e-03  8.8581e-04  0:03:10 1532
   469  1.3300e-02  5.4332e-03  1.0504e-02  3.4108e-01  1.3295e-02  1.0394e-03  8.9497e-04  0:02:32 1531
   470  1.3177e-02  5.5778e-03  1.0539e-02  3.4928e-01  1.3171e-02  1.0374e-03  9.0344e-04  0:02:02 1530
   471  1.3750e-02  5.6611e-03  1.0543e-02  3.6098e-01  1.3745e-02  1.0536e-03  9.1582e-04  0:01:37 1529
   472  1.4960e-02  5.6510e-03  1.0561e-02  3.7333e-01  1.4955e-02  1.0545e-03  9.3236e-04  0:06:23 1528
   473  1.6274e-02  5.6194e-03  1.0488e-02  3.8546e-01  1.6269e-02  1.0869e-03  9.4307e-04  0:05:06 1527

  iter  continuity  x-velocity  y-velocity  z-velocity      energy           k       omega     time/iter
   474  1.7583e-02  5.5618e-03  1.0467e-02  4.0216e-01  1.7577e-02  1.1189e-03  9.5961e-04  0:04:05 1526
   475  1.8599e-02  5.4874e-03  1.0528e-02  4.1466e-01  1.8594e-02  1.1149e-03  9.6884e-04  0:03:16 1525
   476  1.8723e-02  5.4166e-03  1.0640e-02  4.3302e-01  1.8717e-02  1.1350e-03  9.7193e-04  0:02:37 1524
   477  1.8704e-02  5.3878e-03  1.0949e-02  4.4610e-01  1.8699e-02  1.1682e-03  9.8931e-04  0:02:05 1523
   478  1.8179e-02  5.3610e-03  1.1233e-02  4.6134e-01  1.8173e-02  1.1685e-03  9.9025e-04  0:01:40 1522
   479  1.7416e-02  5.3987e-03  1.1559e-02  4.6366e-01  1.7411e-02  1.1777e-03  9.9272e-04  0:06:24 1521
   480  1.6458e-02  5.4415e-03  1.1829e-02  4.5875e-01  1.6453e-02  1.1900e-03  1.0052e-03  0:05:07 1520
   481  1.5449e-02  5.4248e-03  1.1929e-02  4.5684e-01  1.5444e-02  1.1971e-03  1.0031e-03  0:04:06 1519
   482  1.4939e-02  5.3896e-03  1.1965e-02  4.5598e-01  1.4934e-02  1.2010e-03  1.0074e-03  0:03:16 1518
   483  1.4916e-02  5.3727e-03  1.1936e-02  4.5746e-01  1.4911e-02  1.1958e-03  1.0187e-03  0:02:37 1517
   484  1.5125e-02  5.3402e-03  1.1761e-02  4.5575e-01  1.5120e-02  1.1772e-03  1.0235e-03  0:02:05 1516

  iter  continuity  x-velocity  y-velocity  z-velocity      energy           k       omega     time/iter
   485  1.5780e-02  5.2805e-03  1.1521e-02  4.4775e-01  1.5775e-02  1.1711e-03  1.0042e-03  0:01:40 1515
   486  1.6532e-02  5.2420e-03  1.1352e-02  4.3861e-01  1.6526e-02  1.1529e-03  9.9588e-04  0:06:23 1514
   487  1.7107e-02  5.2098e-03  1.1179e-02  4.2771e-01  1.7102e-02  1.1493e-03  9.9495e-04  0:05:06 1513
   488  1.7446e-02  5.2049e-03  1.1069e-02  4.1764e-01  1.7440e-02  1.1219e-03  9.6013e-04  0:04:05 1512
   489  1.7533e-02  5.2665e-03  1.1176e-02  4.1373e-01  1.7527e-02  1.1154e-03  9.5427e-04  0:03:16 1511
   490  1.6862e-02  5.3813e-03  1.1339e-02  4.0486e-01  1.6856e-02  1.1127e-03  9.4860e-04  0:02:36 1510
   491  1.5833e-02  5.5977e-03  1.1471e-02  4.0307e-01  1.5827e-02  1.0947e-03  9.3459e-04  0:02:05 1509
   492  1.4754e-02  5.7971e-03  1.1623e-02  3.9878e-01  1.4748e-02  1.0863e-03  9.3142e-04  0:01:40 1508
   493  1.4196e-02  5.9467e-03  1.1768e-02  3.9863e-01  1.4190e-02  1.0917e-03  9.3957e-04  0:06:21 1507
   494  1.4205e-02  6.0693e-03  1.1825e-02  4.1217e-01  1.4199e-02  1.0903e-03  9.5330e-04  0:05:05 1506
   495  1.4420e-02  6.2122e-03  1.1827e-02  4.2088e-01  1.4414e-02  1.1014e-03  9.6748e-04  0:04:04 1505

  iter  continuity  x-velocity  y-velocity  z-velocity      energy           k       omega     time/iter
   496  1.5211e-02  6.2343e-03  1.1769e-02  4.3311e-01  1.5206e-02  1.1125e-03  9.7501e-04  0:03:15 1504
   497  1.6672e-02  6.1955e-03  1.1704e-02  4.4798e-01  1.6666e-02  1.1220e-03  1.0005e-03  0:02:36 1503
   498  1.8073e-02  6.1431e-03  1.1621e-02  4.6245e-01  1.8068e-02  1.1586e-03  1.0151e-03  0:02:05 1502
   499  1.9331e-02  6.0366e-03  1.1614e-02  4.7661e-01  1.9325e-02  1.1710e-03  1.0305e-03  0:01:40 1501
   500  2.0044e-02  5.9625e-03  1.1571e-02  4.9849e-01  2.0038e-02  1.1819e-03  1.0341e-03  0:06:20 1500
   501  2.0006e-02  5.8547e-03  1.1736e-02  5.1204e-01  2.0000e-02  1.1947e-03  1.0375e-03  0:05:03 1499
   502  1.9741e-02  5.7910e-03  1.2059e-02  5.2638e-01  1.9735e-02  1.2279e-03  1.0516e-03  0:04:03 1498
   503  1.8997e-02  5.7523e-03  1.2373e-02  5.2789e-01  1.8991e-02  1.2192e-03  1.0582e-03  0:03:14 1497
   504  1.7826e-02  5.7526e-03  1.2594e-02  5.2937e-01  1.7820e-02  1.2356e-03  1.0555e-03  0:02:35 1496
   505  1.6599e-02  5.7269e-03  1.2731e-02  5.2280e-01  1.6594e-02  1.2395e-03  1.0604e-03  0:02:04 1495
   506  1.5745e-02  5.6834e-03  1.2769e-02  5.1586e-01  1.5740e-02  1.2402e-03  1.0652e-03  0:01:39 1494

  iter  continuity  x-velocity  y-velocity  z-velocity      energy           k       omega     time/iter
   507  1.5501e-02  5.6296e-03  1.2672e-02  5.1293e-01  1.5497e-02  1.2293e-03  1.0717e-03  0:06:18 1493
   508  1.5752e-02  5.5912e-03  1.2537e-02  5.0772e-01  1.5747e-02  1.2185e-03  1.0843e-03  0:05:02 1492
   509  1.6196e-02  5.5334e-03  1.2270e-02  4.9554e-01  1.6191e-02  1.2094e-03  1.0761e-03  0:04:01 1491
   510  1.6930e-02  5.4714e-03  1.2016e-02  4.8750e-01  1.6925e-02  1.1915e-03  1.0433e-03  0:03:13 1490
   511  1.7596e-02  5.4306e-03  1.1791e-02  4.7911e-01  1.7591e-02  1.1903e-03  1.0483e-03  0:02:34 1489
   512  1.7923e-02  5.3946e-03  1.1565e-02  4.7306e-01  1.7917e-02  1.1625e-03  1.0220e-03  0:02:03 1488
   513  1.8142e-02  5.4170e-03  1.1548e-02  4.6569e-01  1.8136e-02  1.1431e-03  9.9821e-04  0:06:36 1487
   514  1.7535e-02  5.4929e-03  1.1622e-02  4.6348e-01  1.7529e-02  1.1373e-03  9.9529e-04  0:05:17 1486
   515  1.6502e-02  5.6647e-03  1.1703e-02  4.6235e-01  1.6496e-02  1.1315e-03  9.7546e-04  0:04:13 1485
   516  1.5364e-02  5.8610e-03  1.1773e-02  4.5500e-01  1.5358e-02  1.1144e-03  9.6883e-04  0:03:22 1484
   517  1.4540e-02  5.9746e-03  1.1859e-02  4.5328e-01  1.4534e-02  1.1057e-03  9.7003e-04  0:02:42 1483

  iter  continuity  x-velocity  y-velocity  z-velocity      energy           k       omega     time/iter
   518  1.4350e-02  6.0925e-03  1.1905e-02  4.5430e-01  1.4344e-02  1.1053e-03  9.8525e-04  0:02:09 1482
   519  1.4432e-02  6.2117e-03  1.1849e-02  4.5807e-01  1.4426e-02  1.1160e-03  9.8989e-04  0:01:43 1481
   520  1.5176e-02  6.2399e-03  1.1754e-02  4.7074e-01  1.5170e-02  1.1217e-03  9.9345e-04  0:06:19 1480
   521  1.6623e-02  6.1873e-03  1.1650e-02  4.7688e-01  1.6618e-02  1.1290e-03  1.0143e-03  0:05:03 1479
   522  1.8031e-02  6.1337e-03  1.1502e-02  4.8507e-01  1.8025e-02  1.1516e-03  1.0279e-03  0:04:02 1478
   523  1.9165e-02  6.0190e-03  1.1445e-02  4.9698e-01  1.9159e-02  1.1701e-03  1.0405e-03  0:03:13 1477
   524  1.9870e-02  5.9351e-03  1.1389e-02  5.1670e-01  1.9864e-02  1.1789e-03  1.0464e-03  0:02:35 1476
   525  1.9847e-02  5.8033e-03  1.1446e-02  5.2978e-01  1.9841e-02  1.1795e-03  1.0391e-03  0:02:04 1475
   526  1.9567e-02  5.7079e-03  1.1680e-02  5.3819e-01  1.9561e-02  1.2092e-03  1.0508e-03  0:06:34 1474
   527  1.8734e-02  5.6414e-03  1.1936e-02  5.3814e-01  1.8728e-02  1.1997e-03  1.0468e-03  0:05:15 1473
   528  1.7438e-02  5.6029e-03  1.2101e-02  5.2814e-01  1.7433e-02  1.2067e-03  1.0470e-03  0:04:12 1472

  iter  continuity  x-velocity  y-velocity  z-velocity      energy           k       omega     time/iter
   529  1.6148e-02  5.5559e-03  1.2143e-02  5.1411e-01  1.6142e-02  1.2108e-03  1.0559e-03  0:03:21 1471
   530  1.5259e-02  5.4760e-03  1.2122e-02  5.0660e-01  1.5254e-02  1.2044e-03  1.0534e-03  0:02:41 1470
   531  1.5125e-02  5.4144e-03  1.1989e-02  5.1085e-01  1.5120e-02  1.1968e-03  1.0595e-03  0:02:09 1469
   532  1.5369e-02  5.3670e-03  1.1836e-02  5.0789e-01  1.5364e-02  1.1798e-03  1.0577e-03  0:01:43 1468
   533  1.5806e-02  5.2966e-03  1.1550e-02  4.9200e-01  1.5801e-02  1.1663e-03  1.0526e-03  0:06:16 1467
   534  1.6618e-02  5.2523e-03  1.1289e-02  4.7626e-01  1.6613e-02  1.1474e-03  1.0234e-03  0:05:00 1466
   535  1.7092e-02  5.1818e-03  1.1057e-02  4.6113e-01  1.7086e-02  1.1456e-03  1.0244e-03  0:04:00 1465
   536  1.7385e-02  5.1471e-03  1.0849e-02  4.4673e-01  1.7379e-02  1.1163e-03  9.9561e-04  0:03:12 1464
   537  1.7418e-02  5.1692e-03  1.0822e-02  4.3454e-01  1.7412e-02  1.0884e-03  9.7066e-04  0:02:33 1463
   538  1.6594e-02  5.2347e-03  1.0849e-02  4.2621e-01  1.6588e-02  1.0860e-03  9.6387e-04  0:02:03 1462
   539  1.5517e-02  5.4035e-03  1.0884e-02  4.2158e-01  1.5511e-02  1.0777e-03  9.4337e-04  0:01:38 1461

  iter  continuity  x-velocity  y-velocity  z-velocity      energy           k       omega     time/iter
   540  1.4494e-02  5.5294e-03  1.0933e-02  4.1721e-01  1.4488e-02  1.0584e-03  9.3778e-04  0:06:10 1460
   541  1.3899e-02  5.6169e-03  1.0985e-02  4.1646e-01  1.3893e-02  1.0544e-03  9.3918e-04  0:04:56 1459
   542  1.3748e-02  5.7081e-03  1.0986e-02  4.1290e-01  1.3743e-02  1.0472e-03  9.4764e-04  0:03:57 1458
   543  1.4082e-02  5.8176e-03  1.0891e-02  4.1266e-01  1.4077e-02  1.0536e-03  9.4894e-04  0:03:09 1457
   544  1.4931e-02  5.8084e-03  1.0844e-02  4.1541e-01  1.4926e-02  1.0577e-03  9.4805e-04  0:02:31 1456
   545  1.6289e-02  5.7549e-03  1.0701e-02  4.1982e-01  1.6284e-02  1.0592e-03  9.6772e-04  0:02:01 1455
   546  1.7594e-02  5.6879e-03  1.0601e-02  4.2542e-01  1.7588e-02  1.0914e-03  9.7274e-04  0:06:27 1454
   547  1.8637e-02  5.5852e-03  1.0580e-02  4.3734e-01  1.8631e-02  1.0949e-03  9.8699e-04  0:05:10 1453
   548  1.8969e-02  5.4933e-03  1.0503e-02  4.6296e-01  1.8963e-02  1.1048e-03  9.8441e-04  0:04:08 1452
   549  1.8917e-02  5.3774e-03  1.0667e-02  4.6976e-01  1.8911e-02  1.1035e-03  9.8384e-04  0:03:18 1451
   550  1.8408e-02  5.2942e-03  1.0874e-02  4.7737e-01  1.8402e-02  1.1282e-03  9.9076e-04  0:02:38 1450

  iter  continuity  x-velocity  y-velocity  z-velocity      energy           k       omega     time/iter
   551  1.7452e-02  5.2735e-03  1.1098e-02  4.6765e-01  1.7446e-02  1.1130e-03  9.8078e-04  0:02:07 1449
   552  1.6249e-02  5.2494e-03  1.1244e-02  4.6090e-01  1.6243e-02  1.1232e-03  9.9033e-04  0:01:41 1448
   553  1.5044e-02  5.1938e-03  1.1261e-02  4.5948e-01  1.5038e-02  1.1253e-03  9.9095e-04  0:06:10 1447
   554  1.4542e-02  5.1216e-03  1.1216e-02  4.5366e-01  1.4537e-02  1.1276e-03  9.8812e-04  0:04:56 1446
   555  1.4482e-02  5.0948e-03  1.1145e-02  4.4840e-01  1.4477e-02  1.1149e-03  9.9844e-04  0:03:57 1445
   556  1.4695e-02  5.0429e-03  1.0939e-02  4.3949e-01  1.4690e-02  1.0827e-03  9.8437e-04  0:03:09 1444
   557  1.5332e-02  4.9908e-03  1.0680e-02  4.2610e-01  1.5327e-02  1.0814e-03  9.7040e-04  0:02:31 1443
   558  1.6047e-02  4.9536e-03  1.0454e-02  4.1779e-01  1.6042e-02  1.0615e-03  9.4764e-04  0:02:01 1442
   559  1.6457e-02  4.8976e-03  1.0251e-02  4.0893e-01  1.6451e-02  1.0569e-03  9.5143e-04  0:06:25 1441
   560  1.6742e-02  4.8753e-03  1.0158e-02  3.9705e-01  1.6736e-02  1.0285e-03  9.1949e-04  0:05:08 1440
   561  1.6354e-02  4.9166e-03  1.0183e-02  3.8953e-01  1.6348e-02  1.0106e-03  9.0116e-04  0:04:06 1439

  iter  continuity  x-velocity  y-velocity  z-velocity      energy           k       omega     time/iter
   562  1.5530e-02  5.0414e-03  1.0259e-02  3.8502e-01  1.5524e-02  1.0061e-03  8.8991e-04  0:03:17 1438
   563  1.4563e-02  5.2146e-03  1.0309e-02  3.7825e-01  1.4557e-02  9.8678e-04  8.8021e-04  0:02:37 1437
   564  1.3700e-02  5.3243e-03  1.0383e-02  3.7842e-01  1.3695e-02  9.8589e-04  8.7765e-04  0:02:06 1436
   565  1.3395e-02  5.4324e-03  1.0469e-02  3.8271e-01  1.3390e-02  9.7991e-04  8.8462e-04  0:01:40 1435
   566  1.3192e-02  5.5280e-03  1.0455e-02  3.8611e-01  1.3187e-02  9.7473e-04  8.8644e-04  0:06:07 1434
   567  1.3760e-02  5.6121e-03  1.0400e-02  3.9443e-01  1.3755e-02  9.8685e-04  8.9287e-04  0:04:53 1433
   568  1.4967e-02  5.5973e-03  1.0380e-02  4.0592e-01  1.4961e-02  9.8460e-04  9.0967e-04  0:03:55 1432
   569  1.6264e-02  5.5507e-03  1.0265e-02  4.1634e-01  1.6258e-02  9.9851e-04  9.2202e-04  0:03:08 1431
   570  1.7564e-02  5.4808e-03  1.0202e-02  4.2982e-01  1.7559e-02  1.0306e-03  9.3114e-04  0:02:30 1430
   571  1.8598e-02  5.3918e-03  1.0236e-02  4.4500e-01  1.8592e-02  1.0295e-03  9.3991e-04  0:02:00 1429
   572  1.8724e-02  5.3048e-03  1.0275e-02  4.6163e-01  1.8718e-02  1.0421e-03  9.3546e-04  0:01:36 1428

  iter  continuity  x-velocity  y-velocity  z-velocity      energy           k       omega     time/iter
   573  1.8652e-02  5.2344e-03  1.0515e-02  4.7310e-01  1.8646e-02  1.0649e-03  9.4814e-04  0:06:02 1427
   574  1.8021e-02  5.1860e-03  1.0765e-02  4.8725e-01  1.8015e-02  1.0710e-03  9.5441e-04  0:04:49 1426
   575  1.7090e-02  5.1982e-03  1.1023e-02  4.7839e-01  1.7084e-02  1.0719e-03  9.4986e-04  0:03:51 1425
   576  1.5980e-02  5.2135e-03  1.1211e-02  4.6657e-01  1.5975e-02  1.0814e-03  9.6448e-04  0:03:05 1424
   577  1.4946e-02  5.1666e-03  1.1255e-02  4.5834e-01  1.4941e-02  1.0869e-03  9.6006e-04  0:02:28 1423
   578  1.4527e-02  5.1084e-03  1.1233e-02  4.5826e-01  1.4522e-02  1.0893e-03  9.6776e-04  0:01:58 1422
   579  1.4528e-02  5.1039e-03  1.1192e-02  4.5434e-01  1.4524e-02  1.0810e-03  9.7664e-04  0:06:19 1421
   580  1.4771e-02  5.0562e-03  1.0983e-02  4.4905e-01  1.4766e-02  1.0571e-03  9.6288e-04  0:05:03 1420
   581  1.5438e-02  5.0131e-03  1.0753e-02  4.3512e-01  1.5433e-02  1.0529e-03  9.5010e-04  0:04:02 1419
   582  1.6162e-02  4.9915e-03  1.0571e-02  4.2631e-01  1.6156e-02  1.0359e-03  9.3740e-04  0:03:13 1418
   583  1.6583e-02  4.9439e-03  1.0371e-02  4.1429e-01  1.6577e-02  1.0301e-03  9.3377e-04  0:02:35 1417

  iter  continuity  x-velocity  y-velocity  z-velocity      energy           k       omega     time/iter
   584  1.6917e-02  4.9404e-03  1.0330e-02  4.0266e-01  1.6911e-02  9.9873e-04  9.0188e-04  0:02:04 1416
   585  1.6592e-02  4.9883e-03  1.0417e-02  3.9556e-01  1.6586e-02  9.9033e-04  8.9267e-04  0:01:39 1415
   586  1.5789e-02  5.1340e-03  1.0539e-02  3.9344e-01  1.5783e-02  9.8750e-04  8.8024e-04  0:06:02 1414
   587  1.4791e-02  5.3398e-03  1.0629e-02  3.9013e-01  1.4785e-02  9.6275e-04  8.7622e-04  0:04:49 1413
   588  1.3943e-02  5.4750e-03  1.0754e-02  3.9291e-01  1.3937e-02  9.6513e-04  8.7297e-04  0:03:51 1412
   589  1.3547e-02  5.6026e-03  1.0865e-02  3.9677e-01  1.3541e-02  9.6288e-04  8.8114e-04  0:03:05 1411
   590  1.3472e-02  5.7101e-03  1.0887e-02  3.9966e-01  1.3467e-02  9.6069e-04  8.8707e-04  0:02:28 1410
   591  1.4075e-02  5.8206e-03  1.0858e-02  4.0778e-01  1.4070e-02  9.6991e-04  9.0118e-04  0:01:58 1409
   592  1.5223e-02  5.8137e-03  1.0847e-02  4.2011e-01  1.5218e-02  9.7724e-04  9.1454e-04  0:01:34 1408
   593  1.6575e-02  5.7709e-03  1.0752e-02  4.3463e-01  1.6570e-02  9.8825e-04  9.3426e-04  0:05:57 1407
   594  1.7952e-02  5.7095e-03  1.0707e-02  4.4370e-01  1.7946e-02  1.0306e-03  9.4107e-04  0:04:45 1406

  iter  continuity  x-velocity  y-velocity  z-velocity      energy           k       omega     time/iter
   595  1.9160e-02  5.6172e-03  1.0741e-02  4.5847e-01  1.9154e-02  1.0291e-03  9.5219e-04  0:03:48 1405
   596  1.9420e-02  5.5347e-03  1.0769e-02  4.7799e-01  1.9414e-02  1.0445e-03  9.5127e-04  0:03:02 1404
   597  1.9372e-02  5.4639e-03  1.1052e-02  4.9011e-01  1.9366e-02  1.0702e-03  9.6933e-04  0:02:26 1403
   598  1.8812e-02  5.4153e-03  1.1336e-02  5.1126e-01  1.8806e-02  1.0785e-03  9.7331e-04  0:01:57 1402
   599  1.7924e-02  5.4321e-03  1.1648e-02  5.0845e-01  1.7918e-02  1.0791e-03  9.7165e-04  0:06:13 1401
   600  1.6853e-02  5.4546e-03  1.1892e-02  5.0770e-01  1.6848e-02  1.0897e-03  9.8138e-04  0:04:58 1400
   601  1.5715e-02  5.4295e-03  1.1967e-02  5.0998e-01  1.5709e-02  1.0997e-03  9.8558e-04  0:03:59 1399
   602  1.5159e-02  5.3797e-03  1.1983e-02  5.1390e-01  1.5154e-02  1.1031e-03  9.9134e-04  0:03:11 1398
   603  1.5092e-02  5.3612e-03  1.1927e-02  5.2206e-01  1.5087e-02  1.0931e-03  1.0029e-03  0:02:32 1397
   604  1.5308e-02  5.3314e-03  1.1749e-02  5.2112e-01  1.5303e-02  1.0695e-03  1.0015e-03  0:02:02 1396
   605  1.5935e-02  5.2684e-03  1.1488e-02  5.0928e-01  1.5930e-02  1.0686e-03  9.8621e-04  0:01:37 1395

  iter  continuity  x-velocity  y-velocity  z-velocity      energy           k       omega     time/iter
   606  1.6704e-02  5.2359e-03  1.1296e-02  4.9634e-01  1.6698e-02  1.0509e-03  9.6619e-04  0:05:57 1394
   607  1.7205e-02  5.1909e-03  1.1106e-02  4.8374e-01  1.7199e-02  1.0469e-03  9.6962e-04  0:04:45 1393
   608  1.7537e-02  5.1802e-03  1.0974e-02  4.7522e-01  1.7531e-02  1.0170e-03  9.3869e-04  0:03:48 1392
   609  1.7567e-02  5.2330e-03  1.1061e-02  4.7449e-01  1.7561e-02  1.0028e-03  9.2286e-04  0:03:02 1391
   610  1.6795e-02  5.3414e-03  1.1198e-02  4.6876e-01  1.6789e-02  1.0035e-03  9.1510e-04  0:02:26 1390
   611  1.5726e-02  5.5513e-03  1.1312e-02  4.6653e-01  1.5720e-02  9.8505e-04  9.0280e-04  0:01:56 1389
   612  1.4660e-02  5.7354e-03  1.1446e-02  4.6385e-01  1.4655e-02  9.7812e-04  9.0074e-04  0:01:33 1388
   613  1.4109e-02  5.8727e-03  1.1568e-02  4.6654e-01  1.4104e-02  9.7772e-04  9.0988e-04  0:05:52 1387
   614  1.4198e-02  5.9833e-03  1.1612e-02  4.7243e-01  1.4192e-02  9.7424e-04  9.1696e-04  0:04:41 1386
   615  1.4453e-02  6.1217e-03  1.1599e-02  4.8355e-01  1.4448e-02  9.8405e-04  9.3173e-04  0:03:45 1385
   616  1.5326e-02  6.1377e-03  1.1547e-02  5.0545e-01  1.5321e-02  9.9431e-04  9.3684e-04  0:03:00 1384

  iter  continuity  x-velocity  y-velocity  z-velocity      energy           k       omega     time/iter
   617  1.6798e-02  6.0952e-03  1.1475e-02  5.2881e-01  1.6792e-02  9.9850e-04  9.6270e-04  0:02:24 1383
   618  1.8198e-02  6.0369e-03  1.1412e-02  5.4979e-01  1.8192e-02  1.0409e-03  9.7261e-04  0:01:55 1382
   619  1.9490e-02  5.9348e-03  1.1418e-02  5.7069e-01  1.9484e-02  1.0471e-03  9.8726e-04  0:01:32 1381
   620  2.0153e-02  5.8561e-03  1.1387e-02  6.0073e-01  2.0148e-02  1.0576e-03  9.8761e-04  0:05:49 1380
   621  2.0098e-02  5.7538e-03  1.1582e-02  6.1777e-01  2.0092e-02  1.0706e-03  9.8887e-04  0:04:39 1379
   622  1.9781e-02  5.6985e-03  1.1903e-02  6.4214e-01  1.9775e-02  1.0989e-03  1.0027e-03  0:03:43 1378
   623  1.8960e-02  5.6745e-03  1.2226e-02  6.4605e-01  1.8954e-02  1.0922e-03  1.0044e-03  0:02:59 1377
   624  1.7815e-02  5.6796e-03  1.2455e-02  6.5009e-01  1.7809e-02  1.1043e-03  1.0032e-03  0:02:23 1376
   625  1.6579e-02  5.6648e-03  1.2575e-02  6.5546e-01  1.6573e-02  1.1127e-03  1.0127e-03  0:01:54 1375
   626  1.5732e-02  5.6238e-03  1.2619e-02  6.4804e-01  1.5727e-02  1.1109e-03  1.0129e-03  0:06:06 1374
[...]
  1838  1.6323e-02  5.4287e-03  1.1942e-02  3.4802e+00  1.6318e-02  9.4953e-04  9.7457e-04  0:00:17  162
  1839  1.7145e-02  5.3766e-03  1.1702e-02  3.4513e+00  1.7140e-02  9.3142e-04  9.4481e-04  0:00:13  161
  1840  1.7668e-02  5.3342e-03  1.1488e-02  3.3541e+00  1.7663e-02  9.2648e-04  9.4844e-04  0:00:11  160
  1841  1.7950e-02  5.3109e-03  1.1292e-02  3.2833e+00  1.7944e-02  8.9823e-04  9.1837e-04  0:00:40  159
  1842  1.8044e-02  5.3563e-03  1.1347e-02  3.2369e+00  1.8037e-02  8.7523e-04  8.9551e-04  0:00:32  158
  1843  1.7233e-02  5.4428e-03  1.1446e-02  3.1477e+00  1.7226e-02  8.7572e-04  8.8907e-04  0:00:25  157
  1844  1.6118e-02  5.6411e-03  1.1552e-02  3.1275e+00  1.6112e-02  8.6536e-04  8.7731e-04  0:00:20  156
  1845  1.4955e-02  5.8257e-03  1.1647e-02  3.1006e+00  1.4949e-02  8.5229e-04  8.7361e-04  0:00:16  155
  1846  1.4323e-02  5.9515e-03  1.1743e-02  3.0976e+00  1.4317e-02  8.5187e-04  8.8122e-04  0:00:13  154
  1847  1.4378e-02  6.0606e-03  1.1776e-02  3.0982e+00  1.4372e-02  8.4743e-04  8.8783e-04  0:00:41  153
  1848  1.4603e-02  6.1816e-03  1.1747e-02  3.1363e+00  1.4597e-02  8.5838e-04  8.9877e-04  0:00:32  152

  iter  continuity  x-velocity  y-velocity  z-velocity      energy           k       omega     time/iter
  1849  1.5511e-02  6.1972e-03  1.1666e-02  3.1838e+00  1.5505e-02  8.7088e-04  9.0054e-04  0:00:26  151
  1850  1.7020e-02  6.1425e-03  1.1583e-02  3.2108e+00  1.7015e-02  8.7105e-04  9.2712e-04  0:00:20  150
  1851  1.8431e-02  6.0742e-03  1.1486e-02  3.7394e+00  1.8426e-02  9.1056e-04  9.3653e-04  0:00:16  149
  1852  1.9747e-02  5.9690e-03  1.1478e-02  3.4958e+00  1.9741e-02  9.2401e-04  9.5041e-04  0:00:13  148
  1853  2.0460e-02  5.8818e-03  1.1455e-02  3.6367e+00  2.0454e-02  9.3157e-04  9.5537e-04  0:00:10  147
  1854  2.0375e-02  5.7682e-03  1.1607e-02  3.5548e+00  2.0368e-02  9.4212e-04  9.5147e-04  0:00:37  146
  1855  2.0026e-02  5.7058e-03  1.1926e-02  3.4398e+00  2.0020e-02  9.7139e-04  9.6641e-04  0:00:30  145
  1856  1.9134e-02  5.6689e-03  1.2230e-02  3.3432e+00  1.9128e-02  9.6475e-04  9.6599e-04  0:00:24  144
  1857  1.7895e-02  5.6659e-03  1.2445e-02  3.4178e+00  1.7889e-02  9.7593e-04  9.6536e-04  0:00:19  143
  1858  1.6614e-02  5.6509e-03  1.2540e-02  3.6718e+00  1.6608e-02  9.8591e-04  9.7837e-04  0:00:15  142
  1859  1.5744e-02  5.5964e-03  1.2570e-02  3.8629e+00  1.5739e-02  9.8207e-04  9.7704e-04  0:00:12  141

  iter  continuity  x-velocity  y-velocity  z-velocity      energy           k       omega     time/iter
  1860  1.5567e-02  5.5410e-03  1.2450e-02  4.0536e+00  1.5562e-02  9.7495e-04  9.8625e-04  0:00:09  140
  1861  1.5773e-02  5.5145e-03  1.2302e-02  4.1310e+00  1.5767e-02  9.5781e-04  9.8567e-04  0:00:35  139
  1862  1.6218e-02  5.4477e-03  1.2010e-02  4.0860e+00  1.6213e-02  9.4965e-04  9.7892e-04  0:00:28  138
  1863  1.6998e-02  5.3879e-03  1.1749e-02  4.0185e+00  1.6992e-02  9.3250e-04  9.4962e-04  0:00:22  137
  1864  1.7632e-02  5.3513e-03  1.1536e-02  3.8440e+00  1.7626e-02  9.2797e-04  9.5048e-04  0:00:18  136
  1865  1.7915e-02  5.3171e-03  1.1322e-02  3.7035e+00  1.7909e-02  9.0523e-04  9.2799e-04  0:00:14  135
  1866  1.8086e-02  5.3478e-03  1.1331e-02  3.5629e+00  1.8079e-02  8.7654e-04  8.9378e-04  0:00:11  134
  1867  1.7401e-02  5.4253e-03  1.1433e-02  3.4413e+00  1.7395e-02  8.7753e-04  8.9236e-04  0:00:35  133
  1868  1.6347e-02  5.6039e-03  1.1544e-02  3.3659e+00  1.6341e-02  8.7165e-04  8.7722e-04  0:00:28  132
  1869  1.5156e-02  5.8048e-03  1.1628e-02  3.2682e+00  1.5150e-02  8.5374e-04  8.7556e-04  0:00:22  131
  1870  1.4394e-02  5.9307e-03  1.1726e-02  3.2097e+00  1.4388e-02  8.5301e-04  8.7694e-04  0:00:18  130

  iter  continuity  x-velocity  y-velocity  z-velocity      energy           k       omega     time/iter
  1871  1.4274e-02  6.0477e-03  1.1782e-02  3.1710e+00  1.4268e-02  8.5045e-04  8.8768e-04  0:00:14  129
  1872  1.4437e-02  6.1544e-03  1.1759e-02  3.1405e+00  1.4432e-02  8.5646e-04  8.9537e-04  0:00:11  128
  1873  1.5282e-02  6.2002e-03  1.1681e-02  3.1682e+00  1.5276e-02  8.7011e-04  8.9974e-04  0:00:09  127
  1874  1.6752e-02  6.1504e-03  1.1613e-02  3.1786e+00  1.6746e-02  8.6978e-04  9.2325e-04  0:00:32  126
  1875  1.8181e-02  6.0859e-03  1.1493e-02  3.1598e+00  1.8175e-02  9.0143e-04  9.3671e-04  0:00:26  125
  1876  1.9512e-02  5.9889e-03  1.1462e-02  3.1854e+00  1.9506e-02  9.2626e-04  9.4691e-04  0:00:20  124
  1877  2.0411e-02  5.8969e-03  1.1479e-02  3.2183e+00  2.0405e-02  9.3285e-04  9.5708e-04  0:00:16  123
  1878  2.0429e-02  5.7902e-03  1.1556e-02  3.3125e+00  2.0423e-02  9.3888e-04  9.4941e-04  0:00:13  122
  1879  2.0145e-02  5.7233e-03  1.1878e-02  3.3368e+00  2.0139e-02  9.6970e-04  9.6699e-04  0:00:10  121
  1880  1.9338e-02  5.6632e-03  1.2173e-02  3.3819e+00  1.9332e-02  9.6393e-04  9.6529e-04  0:00:32  120
  1881  1.8103e-02  5.6682e-03  1.2401e-02  3.4268e+00  1.8097e-02  9.7348e-04  9.6409e-04  0:00:25  119

  iter  continuity  x-velocity  y-velocity  z-velocity      energy           k       omega     time/iter
  1882  1.6800e-02  5.6600e-03  1.2533e-02  3.4444e+00  1.6795e-02  9.8459e-04  9.7963e-04  0:00:20  118
  1883  1.5844e-02  5.6061e-03  1.2578e-02  3.4706e+00  1.5839e-02  9.7931e-04  9.7545e-04  0:00:16  117
  1884  1.5609e-02  5.5510e-03  1.2478e-02  3.4712e+00  1.5604e-02  9.7709e-04  9.8465e-04  0:00:13  116
  1885  1.5757e-02  5.5240e-03  1.2354e-02  3.4983e+00  1.5751e-02  9.6367e-04  9.8411e-04  0:00:10  115
  1886  1.6131e-02  5.4666e-03  1.2074e-02  3.5120e+00  1.6126e-02  9.4980e-04  9.8223e-04  0:00:08  114
  1887  1.6851e-02  5.4016e-03  1.1802e-02  3.5120e+00  1.6845e-02  9.3534e-04  9.5465e-04  0:00:29  113
  1888  1.7538e-02  5.3720e-03  1.1582e-02  3.4774e+00  1.7532e-02  9.2931e-04  9.5170e-04  0:00:23  112
  1889  1.7884e-02  5.3273e-03  1.1358e-02  3.4044e+00  1.7878e-02  9.1264e-04  9.3624e-04  0:00:18  111
  1890  1.8088e-02  5.3386e-03  1.1317e-02  3.3149e+00  1.8081e-02  8.8035e-04  8.9583e-04  0:00:14  110
  1891  1.7577e-02  5.4073e-03  1.1419e-02  3.2489e+00  1.7570e-02  8.7862e-04  8.9433e-04  0:00:11  109
  1892  1.6549e-02  5.5661e-03  1.1533e-02  3.2294e+00  1.6543e-02  8.7570e-04  8.7844e-04  0:00:09  108

  iter  continuity  x-velocity  y-velocity  z-velocity      energy           k       omega     time/iter
  1893  1.5365e-02  5.7782e-03  1.1607e-02  3.1977e+00  1.5359e-02  8.5476e-04  8.7864e-04  0:00:29  107
  1894  1.4489e-02  5.9068e-03  1.1709e-02  3.1621e+00  1.4483e-02  8.5334e-04  8.7330e-04  0:00:23  106
  1895  1.4182e-02  6.0275e-03  1.1778e-02  3.1312e+00  1.4176e-02  8.5198e-04  8.8438e-04  0:00:18  105
  1896  1.4326e-02  6.1246e-03  1.1762e-02  3.0976e+00  1.4320e-02  8.5573e-04  8.9238e-04  0:00:14  104
  1897  1.5109e-02  6.1964e-03  1.1689e-02  3.0913e+00  1.5103e-02  8.6744e-04  9.0017e-04  0:00:11  103
  1898  1.6520e-02  6.1663e-03  1.1634e-02  3.1048e+00  1.6515e-02  8.7025e-04  9.1852e-04  0:00:09  102
  1899  1.7918e-02  6.1014e-03  1.1499e-02  3.0991e+00  1.7912e-02  8.9159e-04  9.3530e-04  0:00:07  101
  1900  1.9271e-02  6.0153e-03  1.1451e-02  3.1538e+00  1.9265e-02  9.2693e-04  9.4435e-04  0:00:26  100
  1901  2.0326e-02  5.9098e-03  1.1477e-02  3.1904e+00  2.0320e-02  9.3230e-04  9.5611e-04  0:00:20   99
  1902  2.0481e-02  5.8105e-03  1.1501e-02  3.2835e+00  2.0475e-02  9.3745e-04  9.4826e-04  0:00:16   98
  1903  2.0274e-02  5.7332e-03  1.1809e-02  3.4009e+00  2.0268e-02  9.6647e-04  9.6440e-04  0:00:13   97

  iter  continuity  x-velocity  y-velocity  z-velocity      energy           k       omega     time/iter
  1904  1.9523e-02  5.6583e-03  1.2105e-02  3.5094e+00  1.9517e-02  9.6857e-04  9.6463e-04  0:00:10   96
  1905  1.8322e-02  5.6662e-03  1.2360e-02  3.5847e+00  1.8316e-02  9.6864e-04  9.6397e-04  0:00:08   95
  1906  1.7056e-02  5.6654e-03  1.2524e-02  3.6285e+00  1.7050e-02  9.8084e-04  9.7767e-04  0:00:06   94
  1907  1.5961e-02  5.6109e-03  1.2568e-02  3.6703e+00  1.5956e-02  9.7680e-04  9.7210e-04  0:00:24   93
  1908  1.5632e-02  5.5551e-03  1.2494e-02  3.7031e+00  1.5627e-02  9.7994e-04  9.8105e-04  0:00:19   92
  1909  1.5702e-02  5.5246e-03  1.2385e-02  3.7672e+00  1.5697e-02  9.6818e-04  9.8480e-04  0:00:15   91
  1910  1.6009e-02  5.4756e-03  1.2129e-02  3.7542e+00  1.6004e-02  9.4783e-04  9.8370e-04  0:00:12   90
  1911  1.6692e-02  5.4038e-03  1.1833e-02  3.7114e+00  1.6687e-02  9.3742e-04  9.6129e-04  0:00:09   89
  1912  1.7425e-02  5.3755e-03  1.1617e-02  3.6518e+00  1.7419e-02  9.2863e-04  9.4906e-04  0:00:07   88
  1913  1.7826e-02  5.3271e-03  1.1393e-02  3.5704e+00  1.7820e-02  9.1926e-04  9.4029e-04  0:00:06   87
  1914  1.8047e-02  5.3245e-03  1.1297e-02  3.4836e+00  1.8041e-02  8.8368e-04  9.0061e-04  0:00:22   86

  iter  continuity  x-velocity  y-velocity  z-velocity      energy           k       omega     time/iter
  1915  1.7733e-02  5.3869e-03  1.1393e-02  3.4395e+00  1.7726e-02  8.7799e-04  8.9755e-04  0:00:17   85
  1916  1.6752e-02  5.5272e-03  1.1500e-02  3.3887e+00  1.6745e-02  8.7683e-04  8.8092e-04  0:00:14   84
  1917  1.5561e-02  5.7418e-03  1.1579e-02  3.3489e+00  1.5554e-02  8.5368e-04  8.7726e-04  0:00:11   83
  1918  1.4574e-02  5.8859e-03  1.1691e-02  3.3291e+00  1.4568e-02  8.5208e-04  8.7183e-04  0:00:09   82
  1919  1.4154e-02  6.0040e-03  1.1770e-02  3.2979e+00  1.4148e-02  8.5230e-04  8.8255e-04  0:00:07   81
  1920  1.4295e-02  6.0970e-03  1.1761e-02  3.2716e+00  1.4289e-02  8.5200e-04  8.9056e-04  0:00:05   80
  1921  1.4990e-02  6.1998e-03  1.1699e-02  3.2992e+00  1.4984e-02  8.6431e-04  9.0208e-04  0:00:20   79
  1922  1.6191e-02  6.1735e-03  1.1645e-02  3.3218e+00  1.6186e-02  8.7052e-04  9.0827e-04  0:00:16   78
  1923  1.7654e-02  6.1128e-03  1.1525e-02  3.3688e+00  1.7648e-02  8.8573e-04  9.3480e-04  0:00:12   77
  1924  1.9046e-02  6.0354e-03  1.1468e-02  3.3745e+00  1.9040e-02  9.2516e-04  9.4064e-04  0:00:10   76
  1925  2.0224e-02  5.9252e-03  1.1482e-02  3.4134e+00  2.0218e-02  9.2687e-04  9.5310e-04  0:00:08   75

  iter  continuity  x-velocity  y-velocity  z-velocity      energy           k       omega     time/iter
  1926  2.0524e-02  5.8322e-03  1.1462e-02  3.5259e+00  2.0518e-02  9.3791e-04  9.4873e-04  0:00:06   74
  1927  2.0357e-02  5.7404e-03  1.1737e-02  3.6078e+00  2.0351e-02  9.5945e-04  9.6149e-04  0:00:19   73
  1928  1.9699e-02  5.6573e-03  1.2042e-02  3.7331e+00  1.9693e-02  9.7059e-04  9.6250e-04  0:00:15   72
  1929  1.8565e-02  5.6585e-03  1.2323e-02  3.7997e+00  1.8559e-02  9.6462e-04  9.6359e-04  0:00:12   71
  1930  1.7351e-02  5.6646e-03  1.2518e-02  3.8139e+00  1.7346e-02  9.7537e-04  9.7404e-04  0:00:10   70
  1931  1.6140e-02  5.6166e-03  1.2564e-02  3.9257e+00  1.6134e-02  9.7943e-04  9.7099e-04  0:00:08   69
  1932  1.5678e-02  5.5608e-03  1.2523e-02  4.0122e+00  1.5673e-02  9.8409e-04  9.7698e-04  0:00:06   68
  1933  1.5652e-02  5.5241e-03  1.2410e-02  4.0892e+00  1.5647e-02  9.6970e-04  9.8293e-04  0:00:05   67
  1934  1.5916e-02  5.4841e-03  1.2183e-02  4.0858e+00  1.5911e-02  9.4530e-04  9.8514e-04  0:00:17   66
  1935  1.6565e-02  5.4084e-03  1.1874e-02  4.0280e+00  1.6559e-02  9.4321e-04  9.6591e-04  0:00:13   65
  1936  1.7332e-02  5.3753e-03  1.1656e-02  3.9379e+00  1.7327e-02  9.2753e-04  9.4537e-04  0:00:10   64

  iter  continuity  x-velocity  y-velocity  z-velocity      energy           k       omega     time/iter
  1937  1.7768e-02  5.3256e-03  1.1433e-02  3.8231e+00  1.7762e-02  9.2428e-04  9.4325e-04  0:00:08   63
  1938  1.8025e-02  5.3198e-03  1.1290e-02  3.7241e+00  1.8019e-02  8.8912e-04  9.0774e-04  0:00:06   62
  1939  1.7892e-02  5.3763e-03  1.1373e-02  3.6800e+00  1.7886e-02  8.7694e-04  8.9757e-04  0:00:05   61
  1940  1.6953e-02  5.4913e-03  1.1480e-02  3.5923e+00  1.6947e-02  8.7673e-04  8.8382e-04  0:00:04   60
  1941  1.5783e-02  5.6985e-03  1.1568e-02  3.5545e+00  1.5777e-02  8.5752e-04  8.7588e-04  0:00:15   59
  1942  1.4702e-02  5.8625e-03  1.1678e-02  3.5066e+00  1.4696e-02  8.5204e-04  8.7301e-04  0:00:12   58
  1943  1.4214e-02  5.9842e-03  1.1765e-02  3.4503e+00  1.4208e-02  8.5190e-04  8.8204e-04  0:00:09   57
  1944  1.4370e-02  6.0777e-03  1.1766e-02  3.4072e+00  1.4364e-02  8.4904e-04  8.9041e-04  0:00:07   56
  1945  1.4878e-02  6.1955e-03  1.1717e-02  3.4257e+00  1.4872e-02  8.6147e-04  8.9911e-04  0:00:06   55
  1946  1.5897e-02  6.1806e-03  1.1661e-02  3.4741e+00  1.5891e-02  8.6994e-04  9.0333e-04  0:00:04   54
  1947  1.7405e-02  6.1265e-03  1.1545e-02  3.4838e+00  1.7400e-02  8.7993e-04  9.3059e-04  0:00:14   53

  iter  continuity  x-velocity  y-velocity  z-velocity      energy           k       omega     time/iter
  1948  1.8794e-02  6.0537e-03  1.1480e-02  3.5094e+00  1.8788e-02  9.2085e-04  9.3640e-04  0:00:11   52
  1949  2.0036e-02  5.9409e-03  1.1488e-02  3.5376e+00  2.0030e-02  9.2398e-04  9.5475e-04  0:00:09   51
  1950  2.0505e-02  5.8538e-03  1.1445e-02  3.6536e+00  2.0499e-02  9.3503e-04  9.5173e-04  0:00:07   50
  1951  2.0369e-02  5.7485e-03  1.1685e-02  3.6998e+00  2.0363e-02  9.5079e-04  9.5793e-04  0:00:05   49
  1952  1.9853e-02  5.6766e-03  1.1982e-02  3.8464e+00  1.9846e-02  9.7098e-04  9.6290e-04  0:00:04   48
  1953  1.8811e-02  5.6627e-03  1.2291e-02  3.8934e+00  1.8805e-02  9.6532e-04  9.6399e-04  0:00:03   47
  1954  1.7571e-02  5.6642e-03  1.2488e-02  3.9453e+00  1.7566e-02  9.7489e-04  9.7277e-04  0:00:12   46
  1955  1.6312e-02  5.6290e-03  1.2551e-02  4.0618e+00  1.6306e-02  9.8158e-04  9.7493e-04  0:00:09   45
  1956  1.5650e-02  5.5723e-03  1.2534e-02  4.0900e+00  1.5644e-02  9.8364e-04  9.7468e-04  0:00:07   44
  1957  1.5592e-02  5.5283e-03  1.2418e-02  4.1564e+00  1.5587e-02  9.7236e-04  9.8462e-04  0:00:06   43
  1958  1.5821e-02  5.4930e-03  1.2229e-02  4.1518e+00  1.5816e-02  9.4785e-04  9.8545e-04  0:00:04   42

  iter  continuity  x-velocity  y-velocity  z-velocity      energy           k       omega     time/iter
  1959  1.6402e-02  5.4216e-03  1.1920e-02  4.1124e+00  1.6397e-02  9.4797e-04  9.7213e-04  0:00:03   41
  1960  1.7219e-02  5.3762e-03  1.1689e-02  4.0620e+00  1.7214e-02  9.3030e-04  9.4400e-04  0:00:03   40
  1961  1.7700e-02  5.3293e-03  1.1472e-02  3.9324e+00  1.7695e-02  9.2619e-04  9.4702e-04  0:00:10   39
  1962  1.7977e-02  5.3111e-03  1.1289e-02  3.8426e+00  1.7970e-02  8.9516e-04  9.1436e-04  0:00:08   38
  1963  1.8015e-02  5.3596e-03  1.1357e-02  3.7728e+00  1.8009e-02  8.7554e-04  8.9513e-04  0:00:06   37
  1964  1.7156e-02  5.4548e-03  1.1457e-02  3.6578e+00  1.7149e-02  8.7608e-04  8.8732e-04  0:00:05   36
  1965  1.6011e-02  5.6596e-03  1.1555e-02  3.6254e+00  1.6005e-02  8.6249e-04  8.7623e-04  0:00:04   35
  1966  1.4872e-02  5.8385e-03  1.1655e-02  3.5761e+00  1.4866e-02  8.5260e-04  8.7289e-04  0:00:03   34
  1967  1.4294e-02  5.9634e-03  1.1751e-02  3.5499e+00  1.4288e-02  8.5173e-04  8.8130e-04  0:00:02   33
  1968  1.4415e-02  6.0666e-03  1.1774e-02  3.5515e+00  1.4409e-02  8.4767e-04  8.8781e-04  0:00:08   32
  1969  1.4680e-02  6.1894e-03  1.1735e-02  3.5898e+00  1.4675e-02  8.5920e-04  8.9975e-04  0:00:06   31

  iter  continuity  x-velocity  y-velocity  z-velocity      energy           k       omega     time/iter
  1970  1.5620e-02  6.1945e-03  1.1661e-02  3.6503e+00  1.5615e-02  8.7059e-04  9.0136e-04  0:00:05   30
  1971  1.7129e-02  6.1398e-03  1.1568e-02  3.6993e+00  1.7124e-02  8.7305e-04  9.2741e-04  0:00:04   29
  1972  1.8531e-02  6.0694e-03  1.1486e-02  3.7332e+00  1.8525e-02  9.1463e-04  9.3693e-04  0:00:03   28
  1973  1.9835e-02  5.9611e-03  1.1484e-02  3.7495e+00  1.9829e-02  9.2302e-04  9.5178e-04  0:00:02   27
  1974  2.0475e-02  5.8745e-03  1.1445e-02  3.8799e+00  2.0468e-02  9.3348e-04  9.5355e-04  0:00:07   26
  1975  2.0354e-02  5.7610e-03  1.1627e-02  3.9473e+00  2.0347e-02  9.4315e-04  9.5240e-04  0:00:05   25
  1976  1.9961e-02  5.6962e-03  1.1938e-02  4.0954e+00  1.9954e-02  9.7184e-04  9.6502e-04  0:00:04   24
  1977  1.9015e-02  5.6682e-03  1.2246e-02  4.1458e+00  1.9009e-02  9.6502e-04  9.6504e-04  0:00:03   23
  1978  1.7795e-02  5.6633e-03  1.2456e-02  4.2182e+00  1.7789e-02  9.7585e-04  9.6555e-04  0:00:02   22
  1979  1.6518e-02  5.6428e-03  1.2539e-02  4.3413e+00  1.6512e-02  9.8527e-04  9.7712e-04  0:00:02   21
  1980  1.5694e-02  5.5918e-03  1.2549e-02  4.5208e+00  1.5689e-02  9.8254e-04  9.7636e-04  0:00:01   20

  iter  continuity  x-velocity  y-velocity  z-velocity      energy           k       omega     time/iter
  1981  1.5558e-02  5.5358e-03  1.2428e-02  4.7607e+00  1.5552e-02  9.7454e-04  9.8555e-04  0:00:05   19
  1982  1.5772e-02  5.5083e-03  1.2272e-02  4.7715e+00  1.5767e-02  9.5497e-04  9.8605e-04  0:00:04   18
  1983  1.6253e-02  5.4397e-03  1.1977e-02  4.7463e+00  1.6248e-02  9.5047e-04  9.7663e-04  0:00:03   17
  1984  1.7054e-02  5.3823e-03  1.1724e-02  4.6807e+00  1.7048e-02  9.3207e-04  9.4729e-04  0:00:02   16
  1985  1.7639e-02  5.3436e-03  1.1510e-02  4.5525e+00  1.7633e-02  9.2738e-04  9.5003e-04  0:00:02   15
  1986  1.7922e-02  5.3134e-03  1.1303e-02  4.4577e+00  1.7916e-02  9.0241e-04  9.2516e-04  0:00:01   14
  1987  1.8066e-02  5.3510e-03  1.1335e-02  4.3669e+00  1.8059e-02  8.7621e-04  8.9435e-04  0:00:01   13
  1988  1.7323e-02  5.4311e-03  1.1435e-02  4.2665e+00  1.7317e-02  8.7695e-04  8.9145e-04  0:00:03   12
  1989  1.6235e-02  5.6188e-03  1.1543e-02  4.2583e+00  1.6229e-02  8.6915e-04  8.7679e-04  0:00:02   11
  1990  1.5063e-02  5.8149e-03  1.1632e-02  4.1937e+00  1.5057e-02  8.5288e-04  8.7464e-04  0:00:02   10
  1991  1.4354e-02  5.9399e-03  1.1730e-02  4.1805e+00  1.4348e-02  8.5256e-04  8.7839e-04  0:00:01    9

  iter  continuity  x-velocity  y-velocity  z-velocity      energy           k       omega     time/iter
  1992  1.4318e-02  6.0539e-03  1.1775e-02  4.1887e+00  1.4312e-02  8.4881e-04  8.8755e-04  0:00:01    8
  1993  1.4497e-02  6.1679e-03  1.1752e-02  4.2213e+00  1.4492e-02  8.5741e-04  8.9657e-04  0:00:01    7
  1994  1.5364e-02  6.1998e-03  1.1671e-02  4.2914e+00  1.5359e-02  8.7087e-04  8.9931e-04  0:00:02    6
  1995  1.6856e-02  6.1473e-03  1.1597e-02  4.3296e+00  1.6850e-02  8.6971e-04  9.2527e-04  0:00:01    5
  1996  1.8287e-02  6.0811e-03  1.1488e-02  4.3481e+00  1.8281e-02  9.0493e-04  9.3689e-04  0:00:01    4
  1997  1.9601e-02  5.9802e-03  1.1467e-02  4.3463e+00  1.9595e-02  9.2466e-04  9.4807e-04  0:00:00    3
  1998  2.0409e-02  5.8862e-03  1.1472e-02  4.4582e+00  2.0403e-02  9.3101e-04  9.5704e-04  0:00:00    2
  1999  2.0388e-02  5.7791e-03  1.1576e-02  4.5020e+00  2.0381e-02  9.4036e-04  9.4944e-04  0:00:00    1
  2000  2.0081e-02  5.7165e-03  1.1898e-02  4.6200e+00  2.0075e-02  9.7017e-04  9.6684e-04  0:00:00    0

> 
adjoint/                parallel/               server/
define/                 parametric-study/       solve/
display/                plot/                   surface/
exit                    preferences/            turbo-workflow/
file/                   print-license-usage     views/
mesh/                   report/

> /file/write-case-data project1
Fast-loading "C:\PROGRA~1\ANSYSI~1\v231\fluent\fluent23.1.0\\addons\afd\lib\hdfio.bin"
Done.

Writing to Engs-30669:"C:\Users\kebl7595\Desktop\CFD\Runs\Flap\Shallower Aspect Ratio\3 degrees\project1.cas.h5" in NODE0 mode and compression level 1 ...
       19422 cells,     1 zone  ...
       65325 faces,     7 zones ...
       26676 nodes,     1 zone  ...
  Done.
Done.

Writing to Engs-30669:"C:\Users\kebl7595\Desktop\CFD\Runs\Flap\Shallower Aspect Ratio\3 degrees\project1.dat.h5" in NODE0 mode and compression level 1 ...
  Writing results.
Done.

> /file/export/ascii "./surface.dat" wing () no pressure mach-number quit no

Writing "./surface.dat"...

Writing information to ascii file ...
Done.


> /report/forces/wall-forces y -0.052336 -0.99863 0 y "Lift"

> /report/forces/wall-forces y 0.99863 -0.052336 0 y "Drag"

> /exit

Posting ANSYS Product Improvement Program performance data 
Done.
Auto-Transcript Stop Time:  11:41:52, 22 May 2024 GMT Daylight Time 
Total Transcript Time: 5 Minute 1 Second.
