Auto-Transcript Start Time:  10:10:22, 22 May 2024 GMT Daylight Time 
Current Directory: "C:\Users\kebl7595\Desktop\CFD\Runs\Flap\27 degree"

              Welcome to ANSYS Fluent 2023 R1

              Copyright 1987-2023 ANSYS, Inc. All Rights Reserved.
              Unauthorized use, distribution or duplication is prohibited.
              This product is subject to U.S. laws governing export and re-export.
              For full Legal Notice, see documentation.

Build Time: Nov 28 2022 09:52:02 EST  Build Id: 10208  
 
Connected License Server List:	1055@ansyslic.eng.ox.ac.uk

*********************************************
Info: Your license enables 4-way parallel execution.
For faster simulations, please start the application with the appropriate parallel options.
*********************************************


     --------------------------------------------------------------
     This is an academic version of ANSYS FLUENT. Usage of this product
     license is limited to the terms and conditions specified in your ANSYS
     license form, additional terms section.
     --------------------------------------------------------------
Host spawning Node 0 on machine "Engs-30669" (win64).

------------------------------------------------------------------------------------
ID    Hostname    Core  O.S.         PID    Vendor                                 
------------------------------------------------------------------------------------
n0    Engs-30669  1/32  Windows-x64  19244  13th Gen Intel(R) Core(TM) i9-13900    
host  Engs-30669        Windows-x64  46064  13th Gen Intel(R) Core(TM) i9-13900    

MPI Option Selected: intel
------------------------------------------------------------------------------------

Cleanup script file is C:\\Users\\kebl7595\\Desktop\\CFD\\Runs\\Flap\\27 degree\\cleanup-fluent-Engs-30669-46064.bat

Posting ANSYS Product Improvement Program startup data
Done.

Reading journal file C:/Users/kebl7595/Desktop/CFD/Runs/Flap/27 degree/project1.jou...

> /file/set-batch-options no no no 

> 
define/                 parametric-study/       solve/
display/                plot/                   surface/
exit                    preferences/            switch-to-meshing-mode
file/                   print-license-usage     turbo-workflow/
mesh/                   report/                 views/
parallel/               server/

> /file/import/cgns/mesh  "./project1.cgns"
Engs-30669 is already loaded (23.421).                       Process affinity not being set.

Importing "./project1.cgns"

Opening library "C:\\PROGRA~1\\ANSYSI~1\\v231\\fluent\\fluent23.1.0\\vki\\win64\\devtools4.4.6.dll"... done.

Read    33000 nodes
   24072 hexahedral cells, zone  1
   17404 quadrilateral wall faces, zone  2.
   63040 quadrilateral interior faces, zone  3.
     474 quadrilateral interface faces, zone  4.

Building...
     mesh
     materials,
     interface,
     domains,
     zones,
	interface-default_subface
	default_interior-1
	default_subface
	default
     parallel,
The automatic selection for flux type has changed to Rhie-Chow: momentum based.

Done.


> 
adjoint/                parallel/               server/
define/                 parametric-study/       solve/
display/                plot/                   surface/
exit                    preferences/            turbo-workflow/
file/                   print-license-usage     views/
mesh/                   report/

> /define/models/solver/density-based-implicit yes

> 
adjoint/                parallel/               server/
define/                 parametric-study/       solve/
display/                plot/                   surface/
exit                    preferences/            turbo-workflow/
file/                   print-license-usage     views/
mesh/                   report/

> /define/models/energy? yes yes invalid command [yes]
yes

> /define/models/viscous/kw-standard? yes

> 
adjoint/                parallel/               server/
define/                 parametric-study/       solve/
display/                plot/                   surface/
exit                    preferences/            turbo-workflow/
file/                   print-license-usage     views/
mesh/                   report/

> /define/materials/change-create air air air is a fluid
yes 
Density
ideal-gas no data required.

no no no no no no

> 
adjoint/                parallel/               server/
define/                 parametric-study/       solve/
display/                plot/                   surface/
exit                    preferences/            turbo-workflow/
file/                   print-license-usage     views/
mesh/                   report/

> /mesh/modify-zones/sep-face-zone-angle 2 90 yes

 8024 faces in contiguous region 0
 441 faces in contiguous region 1
 618 faces in contiguous region 2
 8024 faces in contiguous region 3
 297 faces in contiguous region 4
 Separates zone 2 into 5 zone(s).
Updating new zone information...
   created new zone default_subface:009 from default_subface
   created new zone default_subface:008 from default_subface
   created new zone default_subface:007 from default_subface
   created new zone default_subface:006 from default_subface
done.

> 
adjoint/                parallel/               server/
define/                 parametric-study/       solve/
display/                plot/                   surface/
exit                    preferences/            turbo-workflow/
file/                   print-license-usage     views/
mesh/                   report/

> /define/boundary-conditions/zone-name  6 wing

> /define/boundary-conditions/zone-name  2 sym1

> /define/boundary-conditions/zone-name  8 sym2

> 
adjoint/                parallel/               server/
define/                 parametric-study/       solve/
display/                plot/                   surface/
exit                    preferences/            turbo-workflow/
file/                   print-license-usage     views/
mesh/                   report/

> /define/boundary-conditions/zone-name  7 far1

> /define/boundary-conditions/zone-name 9 far2

> 
adjoint/                parallel/               server/
define/                 parametric-study/       solve/
display/                plot/                   surface/
exit                    preferences/            turbo-workflow/
file/                   print-license-usage     views/
mesh/                   report/

> /define/boundary-conditions/zone-type  7 pressure-far-field

> /define/boundary-conditions/zone-type 9 pressure-far-field

> /define/boundary-conditions/zone-type  2 symmetry

> /define/boundary-conditions/zone-type  8 symmetry

> 
adjoint/                parallel/               server/
define/                 parametric-study/       solve/
display/                plot/                   surface/
exit                    preferences/            turbo-workflow/
file/                   print-license-usage     views/
mesh/                   report/

> /define/boundary-conditions/pressure-far-field (far2 far1)
far1 no 0 no 0.1 no 300 yes no 0.89101 no -0.45399 no 0. no yes 5 0.02

> /define/boundary-conditions/pressure-far-field (far2 far1)
far2 no 0 no 0.1 no 300 yes no 0.89101 no -0.45399 no 0. no yes 5 0.02

> 
adjoint/                parallel/               server/
define/                 parametric-study/       solve/
display/                plot/                   surface/
exit                    preferences/            turbo-workflow/
file/                   print-license-usage     views/
mesh/                   report/

> /solve/initialize/compute-defaults/pressure-far-field (far2 far1)
far1

> /solve/initialize/initialize-flow

> 
adjoint/                parallel/               server/
define/                 parametric-study/       solve/
display/                plot/                   surface/
exit                    preferences/            turbo-workflow/
file/                   print-license-usage     views/
mesh/                   report/

> /solve/monitors/residual/convergence-criteria 1.e-9 1.e-9 1.e-9 1.e-9 1.e-9 1.e-9 1.e-9

> /solve/iterate 2000

  iter  continuity  x-velocity  y-velocity  z-velocity      energy           k       omega     time/iter
     1  1.0000e+00  1.0000e+00  1.0000e+00  1.0000e+00  1.0000e+00  4.2101e-02  4.9276e-02  0:00:00 1999
     2  4.6030e-01  2.5674e-01  2.8325e-01  1.0000e+00  4.6265e-01  3.7201e-02  3.4281e-02  0:33:18 1998
     3  2.1003e-01  1.4435e-01  1.7958e-01  1.0000e+00  2.1033e-01  3.3048e-02  2.8416e-02  0:26:38 1997
     4  1.5228e-01  8.3066e-02  1.1801e-01  9.4095e-01  1.5287e-01  2.9700e-02  2.5042e-02  0:27:57 1996
     5  1.2407e-01  5.7103e-02  9.5922e-02  9.8766e-01  1.2490e-01  2.7037e-02  2.3082e-02  0:22:21 1995
     6  1.0464e-01  4.0338e-02  8.2098e-02  9.3998e-01  1.0540e-01  2.4770e-02  2.1468e-02  0:17:52 1994
     7  8.9152e-02  2.7302e-02  7.1181e-02  9.2754e-01  8.9731e-02  2.2823e-02  2.0103e-02  0:20:56 1993
     8  7.9678e-02  1.8905e-02  6.4106e-02  9.0026e-01  8.0159e-02  2.1166e-02  1.8885e-02  0:16:44 1992
     9  7.2551e-02  1.5074e-02  6.0588e-02  9.3629e-01  7.2981e-02  1.9723e-02  1.7763e-02  0:13:23 1991
    10  6.5174e-02  1.4164e-02  5.9647e-02  9.7817e-01  6.5543e-02  1.8454e-02  1.6741e-02  0:10:42 1990
    11  5.8933e-02  1.4200e-02  6.1227e-02  9.5207e-01  5.9241e-02  1.7361e-02  1.5822e-02  0:15:11 1989

  iter  continuity  x-velocity  y-velocity  z-velocity      energy           k       omega     time/iter
    12  5.4502e-02  1.4113e-02  6.4685e-02  8.6231e-01  5.4755e-02  1.6424e-02  1.4997e-02  0:12:09 1988
    13  5.2222e-02  1.3610e-02  6.9653e-02  8.1238e-01  5.2439e-02  1.5632e-02  1.4253e-02  0:09:43 1987
    14  5.2009e-02  1.2659e-02  7.5609e-02  8.4223e-01  5.2208e-02  1.4976e-02  1.3628e-02  0:14:23 1986
    15  5.3154e-02  1.1610e-02  8.0953e-02  9.4029e-01  5.3344e-02  1.4420e-02  1.3079e-02  0:11:30 1985
    16  5.5582e-02  1.0929e-02  8.5354e-02  1.0725e+00  5.5776e-02  1.3916e-02  1.2578e-02  0:09:12 1984
    17  5.9009e-02  1.0809e-02  8.8050e-02  1.2094e+00  5.9220e-02  1.3460e-02  1.2147e-02  0:13:58 1983
    18  6.2517e-02  1.1546e-02  8.9645e-02  1.3415e+00  6.2745e-02  1.3055e-02  1.1739e-02  0:11:10 1982
    19  6.4913e-02  1.2664e-02  9.0739e-02  1.4425e+00  6.5162e-02  1.2710e-02  1.1409e-02  0:08:56 1981
    20  6.6585e-02  1.3877e-02  9.0676e-02  1.5166e+00  6.6852e-02  1.2421e-02  1.1147e-02  0:13:44 1980
    21  6.5953e-02  1.5005e-02  8.8832e-02  1.5561e+00  6.6209e-02  1.2184e-02  1.0936e-02  0:10:59 1979
    22  6.3165e-02  1.6251e-02  8.6927e-02  1.5633e+00  6.3390e-02  1.1997e-02  1.0681e-02  0:08:47 1978

  iter  continuity  x-velocity  y-velocity  z-velocity      energy           k       omega     time/iter
    23  5.8196e-02  1.7171e-02  8.4837e-02  1.5411e+00  5.8374e-02  1.1840e-02  1.0523e-02  0:07:01 1977
    24  5.2175e-02  1.7457e-02  8.2369e-02  1.4969e+00  5.2299e-02  1.1744e-02  1.0323e-02  0:12:12 1976
    25  4.5891e-02  1.7164e-02  8.0001e-02  1.4329e+00  4.5966e-02  1.1668e-02  1.0178e-02  0:09:45 1975
    26  3.9992e-02  1.6563e-02  7.7709e-02  1.3650e+00  4.0030e-02  1.1604e-02  9.9172e-03  0:14:23 1974
    27  3.5163e-02  1.5445e-02  7.5322e-02  1.2979e+00  3.5181e-02  1.1555e-02  9.6836e-03  0:11:30 1973
    28  3.1893e-02  1.3994e-02  7.3260e-02  1.2309e+00  3.1906e-02  1.1540e-02  9.5430e-03  0:15:46 1972
    29  3.0273e-02  1.2372e-02  7.1565e-02  1.1633e+00  3.0294e-02  1.1491e-02  9.3535e-03  0:12:36 1971
    30  2.9604e-02  1.0747e-02  7.0093e-02  1.0984e+00  2.9635e-02  1.1467e-02  9.0922e-03  0:16:39 1970
    31  2.9519e-02  9.1803e-03  6.8720e-02  1.0395e+00  2.9562e-02  1.1432e-02  8.8703e-03  0:13:19 1969
    32  2.9820e-02  8.0453e-03  6.7454e-02  9.8485e-01  2.9872e-02  1.1389e-02  8.6862e-03  0:17:12 1968
    33  3.0268e-02  7.1933e-03  6.6255e-02  9.3568e-01  3.0323e-02  1.1351e-02  8.4833e-03  0:13:45 1967

  iter  continuity  x-velocity  y-velocity  z-velocity      energy           k       omega     time/iter
    34  3.0725e-02  6.4737e-03  6.5063e-02  8.9178e-01  3.0780e-02  1.1324e-02  8.2855e-03  0:17:33 1966
    35  3.0993e-02  5.8387e-03  6.3859e-02  8.5732e-01  3.1046e-02  1.1297e-02  8.1436e-03  0:14:02 1965
    36  3.1062e-02  5.3444e-03  6.2647e-02  8.1570e-01  3.1109e-02  1.1282e-02  8.0096e-03  0:17:46 1964
    37  3.0917e-02  4.9240e-03  6.1358e-02  7.7488e-01  3.0953e-02  1.1286e-02  7.8600e-03  0:14:12 1963
    38  3.0654e-02  4.6137e-03  5.9980e-02  7.3248e-01  3.0677e-02  1.1323e-02  7.7675e-03  0:17:54 1962
    39  3.0321e-02  4.4271e-03  5.8507e-02  6.9007e-01  3.0330e-02  1.1351e-02  7.6937e-03  0:14:19 1961
    40  2.9807e-02  4.3008e-03  5.6901e-02  6.4898e-01  2.9802e-02  1.1397e-02  7.6122e-03  0:17:59 1960
    41  2.9303e-02  4.2485e-03  5.5193e-02  6.0893e-01  2.9283e-02  1.1454e-02  7.5470e-03  0:14:23 1959
    42  2.8824e-02  4.2703e-03  5.3392e-02  5.7047e-01  2.8791e-02  1.1499e-02  7.5303e-03  0:18:01 1958
    43  2.8423e-02  4.3461e-03  5.1550e-02  5.3589e-01  2.8378e-02  1.1552e-02  7.5154e-03  0:14:25 1957
    44  2.7957e-02  4.4418e-03  4.9710e-02  5.0560e-01  2.7903e-02  1.1619e-02  7.5156e-03  0:18:02 1956

  iter  continuity  x-velocity  y-velocity  z-velocity      energy           k       omega     time/iter
    45  2.7579e-02  4.5330e-03  4.7946e-02  4.8122e-01  2.7519e-02  1.1677e-02  7.5435e-03  0:14:26 1955
    46  2.7362e-02  4.6498e-03  4.6288e-02  4.6202e-01  2.7302e-02  1.1730e-02  7.5664e-03  0:18:03 1954
    47  2.7457e-02  4.7848e-03  4.4841e-02  4.5085e-01  2.7402e-02  1.1806e-02  7.5690e-03  0:14:26 1953
    48  2.8058e-02  4.9395e-03  4.3642e-02  4.5007e-01  2.8012e-02  1.1867e-02  7.5745e-03  0:18:03 1952
    49  2.9309e-02  5.1745e-03  4.2843e-02  4.5806e-01  2.9278e-02  1.1934e-02  7.6050e-03  0:14:26 1951
    50  3.1071e-02  5.4842e-03  4.2469e-02  4.7190e-01  3.1059e-02  1.1974e-02  7.6239e-03  0:18:02 1950
    51  3.3174e-02  5.8270e-03  4.2533e-02  4.8836e-01  3.3183e-02  1.2056e-02  7.6732e-03  0:14:25 1949
    52  3.5471e-02  6.1756e-03  4.3070e-02  5.0616e-01  3.5504e-02  1.2127e-02  7.7124e-03  0:11:32 1948
    53  3.8002e-02  6.5001e-03  4.3960e-02  5.2328e-01  3.8060e-02  1.2232e-02  7.7751e-03  0:15:43 1947
    54  4.0754e-02  6.7493e-03  4.5375e-02  5.3889e-01  4.0838e-02  1.2365e-02  7.8346e-03  0:12:34 1946
    55  4.3812e-02  7.0005e-03  4.6976e-02  5.5163e-01  4.3922e-02  1.2513e-02  7.9064e-03  0:16:32 1945

  iter  continuity  x-velocity  y-velocity  z-velocity      energy           k       omega     time/iter
    56  4.6633e-02  7.1821e-03  4.8621e-02  5.6247e-01  4.6765e-02  1.2677e-02  7.9655e-03  0:13:13 1944
    57  4.9069e-02  7.3420e-03  5.0014e-02  5.6985e-01  4.9218e-02  1.2917e-02  8.0403e-03  0:17:03 1943
    58  5.1309e-02  7.3870e-03  5.1206e-02  5.7553e-01  5.1472e-02  1.3069e-02  8.1466e-03  0:13:38 1942
    59  5.2275e-02  7.1367e-03  5.1686e-02  5.7475e-01  5.2436e-02  1.3411e-02  8.2542e-03  0:17:22 1941
    60  5.1785e-02  6.6486e-03  5.1215e-02  5.7263e-01  5.1930e-02  1.3582e-02  8.2900e-03  0:13:53 1940
    61  5.0451e-02  6.1634e-03  5.0220e-02  5.6774e-01  5.0574e-02  1.3930e-02  8.3690e-03  0:17:34 1939
    62  4.8635e-02  5.7288e-03  4.8928e-02  5.5986e-01  4.8734e-02  1.4171e-02  8.4270e-03  0:14:03 1938
    63  4.6441e-02  5.3171e-03  4.7245e-02  5.5056e-01  4.6518e-02  1.4413e-02  8.4505e-03  0:17:41 1937
    64  4.3991e-02  5.0011e-03  4.5954e-02  5.4315e-01  4.4049e-02  1.4921e-02  8.5382e-03  0:14:09 1936
    65  4.1402e-02  4.7612e-03  4.4460e-02  5.3354e-01  4.1446e-02  1.5229e-02  8.6220e-03  0:11:19 1935
    66  3.9071e-02  4.5317e-03  4.2729e-02  5.2172e-01  3.9104e-02  1.5727e-02  8.7657e-03  0:15:29 1934

  iter  continuity  x-velocity  y-velocity  z-velocity      energy           k       omega     time/iter
    67  3.7776e-02  4.3699e-03  4.1258e-02  5.1454e-01  3.7798e-02  1.6292e-02  8.7812e-03  0:12:23 1933
    68  3.7088e-02  4.2776e-03  3.9834e-02  5.0369e-01  3.7102e-02  1.6746e-02  8.7851e-03  0:16:21 1932
    69  3.6163e-02  4.2476e-03  3.8262e-02  4.9533e-01  3.6175e-02  1.7373e-02  8.8377e-03  0:13:04 1931
    70  3.5110e-02  4.2576e-03  3.6728e-02  4.8969e-01  3.5122e-02  1.8062e-02  8.8883e-03  0:16:53 1930
    71  3.3915e-02  4.2561e-03  3.5156e-02  4.8164e-01  3.3927e-02  1.8827e-02  8.8836e-03  0:13:30 1929
    72  3.2562e-02  4.2291e-03  3.3417e-02  4.8525e-01  3.2571e-02  1.9501e-02  8.9388e-03  0:17:13 1928
    73  3.1025e-02  4.2035e-03  3.1651e-02  4.9861e-01  3.1031e-02  2.0361e-02  8.9277e-03  0:13:46 1927
    74  2.9326e-02  4.2550e-03  2.9791e-02  5.2319e-01  2.9326e-02  2.1295e-02  8.8907e-03  0:17:26 1926
    75  2.7483e-02  4.3600e-03  2.7862e-02  5.7462e-01  2.7474e-02  2.2027e-02  8.8628e-03  0:13:56 1925
    76  2.5642e-02  4.4018e-03  2.6139e-02  6.0842e-01  2.5623e-02  2.3003e-02  8.8370e-03  0:17:33 1924
    77  2.3858e-02  4.4035e-03  2.4382e-02  6.5511e-01  2.3830e-02  2.4226e-02  8.8063e-03  0:14:02 1923

  iter  continuity  x-velocity  y-velocity  z-velocity      energy           k       omega     time/iter
    78  2.2358e-02  4.3702e-03  2.2820e-02  7.2264e-01  2.2323e-02  2.5224e-02  8.7617e-03  0:17:38 1922
    79  2.1275e-02  4.2963e-03  2.1363e-02  7.9255e-01  2.1237e-02  2.6326e-02  8.7282e-03  0:14:06 1921
    80  2.0678e-02  4.2535e-03  2.0298e-02  8.6610e-01  2.0641e-02  2.7315e-02  8.7193e-03  0:17:40 1920
    81  2.0531e-02  4.2359e-03  1.9788e-02  9.5533e-01  2.0500e-02  2.8580e-02  8.6843e-03  0:14:08 1919
    82  2.0640e-02  4.2398e-03  1.9708e-02  1.0733e+00  2.0616e-02  2.9786e-02  8.6642e-03  0:17:42 1918
    83  2.1021e-02  4.2773e-03  2.0034e-02  1.1742e+00  2.1006e-02  3.0219e-02  8.6779e-03  0:20:32 1917
    84  2.1610e-02  4.3447e-03  2.0630e-02  1.4346e+00  2.1603e-02  3.1021e-02  8.7280e-03  0:16:25 1916
    85  2.2257e-02  4.4370e-03  2.1391e-02  1.6591e+00  2.2258e-02  3.2621e-02  8.7792e-03  0:13:08 1915
    86  2.2563e-02  4.5908e-03  2.2262e-02  2.0583e+00  2.2569e-02  3.3812e-02  8.8246e-03  0:16:53 1914
    87  2.2617e-02  4.8177e-03  2.3116e-02  2.5695e+00  2.2626e-02  3.4481e-02  8.8508e-03  0:19:52 1913
    88  2.2484e-02  5.0654e-03  2.3873e-02  3.3425e+00  2.2494e-02  3.4643e-02  8.8662e-03  0:15:53 1912

  iter  continuity  x-velocity  y-velocity  z-velocity      energy           k       omega     time/iter
    89  2.2165e-02  5.2930e-03  2.4482e-02  3.1068e+00  2.2173e-02  3.5423e-02  8.9527e-03  0:19:04 1911
    90  2.1713e-02  5.4674e-03  2.4926e-02  2.6661e+00  2.1718e-02  3.6346e-02  8.9840e-03  0:15:15 1910
    91  2.1255e-02  5.6158e-03  2.5239e-02  2.3907e+00  2.1256e-02  3.6747e-02  8.9676e-03  0:12:12 1909
    92  2.0833e-02  5.7172e-03  2.5400e-02  2.3739e+00  2.0831e-02  3.7033e-02  8.9079e-03  0:16:07 1908
    93  2.0558e-02  5.7764e-03  2.5472e-02  2.4953e+00  2.0555e-02  3.7033e-02  8.8271e-03  0:12:53 1907
    94  2.0412e-02  5.8082e-03  2.5400e-02  2.6092e+00  2.0407e-02  3.6509e-02  8.8327e-03  0:16:39 1906
    95  2.0421e-02  5.8038e-03  2.5307e-02  2.6910e+00  2.0416e-02  3.6847e-02  8.8072e-03  0:13:19 1905
    96  2.0587e-02  5.7324e-03  2.5184e-02  2.7110e+00  2.0583e-02  3.7101e-02  8.7368e-03  0:17:00 1904
    97  2.0851e-02  5.6182e-03  2.4988e-02  2.7698e+00  2.0850e-02  3.7253e-02  8.6024e-03  0:13:35 1903
    98  2.1296e-02  5.4742e-03  2.4746e-02  2.8354e+00  2.1298e-02  3.7208e-02  8.4249e-03  0:17:12 1902
    99  2.1901e-02  5.2910e-03  2.4466e-02  2.9249e+00  2.1907e-02  3.6365e-02  8.2619e-03  0:13:45 1901

  iter  continuity  x-velocity  y-velocity  z-velocity      energy           k       omega     time/iter
   100  2.2666e-02  5.0920e-03  2.4198e-02  2.9959e+00  2.2676e-02  3.4771e-02  8.1220e-03  0:17:20 1900
   101  2.3535e-02  4.9223e-03  2.3890e-02  2.9741e+00  2.3549e-02  3.3899e-02  7.9981e-03  0:13:52 1899
   102  2.4521e-02  4.7704e-03  2.3509e-02  3.2269e+00  2.4539e-02  3.3796e-02  7.8714e-03  0:17:24 1898
   103  2.5610e-02  4.6624e-03  2.3107e-02  3.1306e+00  2.5630e-02  3.3319e-02  7.6723e-03  0:13:55 1897
   104  2.6646e-02  4.6180e-03  2.2696e-02  3.0441e+00  2.6668e-02  3.2771e-02  7.4986e-03  0:17:27 1896
   105  2.7554e-02  4.6324e-03  2.2295e-02  3.0615e+00  2.7577e-02  3.2080e-02  7.2870e-03  0:13:57 1895
   106  2.8224e-02  4.7140e-03  2.1907e-02  2.9113e+00  2.8247e-02  3.0865e-02  7.0765e-03  0:17:28 1894
   107  2.8598e-02  4.8597e-03  2.1558e-02  2.8694e+00  2.8621e-02  2.9135e-02  6.9181e-03  0:13:58 1893
   108  2.8557e-02  5.0513e-03  2.1265e-02  2.8004e+00  2.8577e-02  2.7415e-02  6.7677e-03  0:17:29 1892
   109  2.8190e-02  5.2826e-03  2.0989e-02  2.6728e+00  2.8207e-02  2.6347e-02  6.6321e-03  0:13:58 1891
   110  2.7447e-02  5.5253e-03  2.0723e-02  2.5780e+00  2.7461e-02  2.5469e-02  6.4899e-03  0:17:28 1890

  iter  continuity  x-velocity  y-velocity  z-velocity      energy           k       omega     time/iter
   111  2.6418e-02  5.7620e-03  2.0445e-02  2.4731e+00  2.6427e-02  2.4797e-02  6.3506e-03  0:13:58 1889
   112  2.5185e-02  5.9910e-03  2.0201e-02  2.3438e+00  2.5187e-02  2.4185e-02  6.2019e-03  0:17:28 1888
   113  2.3749e-02  6.1997e-03  1.9928e-02  2.2471e+00  2.3744e-02  2.3453e-02  6.0767e-03  0:13:58 1887
   114  2.2235e-02  6.3672e-03  1.9588e-02  2.1752e+00  2.2222e-02  2.2937e-02  5.9513e-03  0:17:27 1886
   115  2.0795e-02  6.4815e-03  1.9224e-02  2.1202e+00  2.0773e-02  2.2236e-02  5.8653e-03  0:13:57 1885
   116  1.9591e-02  6.5408e-03  1.8869e-02  2.0488e+00  1.9561e-02  2.1532e-02  5.8492e-03  0:17:26 1884
   117  1.8627e-02  6.5288e-03  1.8545e-02  1.9863e+00  1.8591e-02  2.1058e-02  5.8485e-03  0:20:13 1883
   118  1.7970e-02  6.4652e-03  1.8317e-02  1.9696e+00  1.7929e-02  2.0900e-02  5.8592e-03  0:16:10 1882
   119  1.7623e-02  6.3539e-03  1.8171e-02  2.0066e+00  1.7579e-02  2.0905e-02  5.8925e-03  0:19:12 1881
   120  1.7519e-02  6.2101e-03  1.8164e-02  2.0811e+00  1.7474e-02  2.0898e-02  5.9137e-03  0:15:21 1880
   121  1.7619e-02  6.0392e-03  1.8294e-02  2.1732e+00  1.7575e-02  2.0709e-02  5.9094e-03  0:18:32 1879

  iter  continuity  x-velocity  y-velocity  z-velocity      energy           k       omega     time/iter
   122  1.7881e-02  5.8532e-03  1.8557e-02  2.2802e+00  1.7838e-02  2.0542e-02  5.8972e-03  0:14:49 1878
   123  1.8177e-02  5.6861e-03  1.8945e-02  2.4226e+00  1.8137e-02  2.0486e-02  5.8924e-03  0:18:06 1877
   124  1.8449e-02  5.5353e-03  1.9427e-02  2.5902e+00  1.8412e-02  2.0291e-02  5.9135e-03  0:14:29 1876
   125  1.8612e-02  5.4093e-03  1.9908e-02  2.7683e+00  1.8577e-02  2.0276e-02  5.9584e-03  0:17:50 1875
   126  1.8627e-02  5.3044e-03  2.0357e-02  2.9420e+00  1.8595e-02  2.0320e-02  6.0043e-03  0:14:15 1874
   127  1.8498e-02  5.2266e-03  2.0726e-02  3.1038e+00  1.8468e-02  2.0381e-02  6.0564e-03  0:17:38 1873
   128  1.8209e-02  5.1685e-03  2.1019e-02  3.2618e+00  1.8180e-02  2.0546e-02  6.0996e-03  0:14:06 1872
   129  1.7780e-02  5.1112e-03  2.1226e-02  3.4089e+00  1.7753e-02  2.0666e-02  6.1650e-03  0:17:31 1871
   130  1.7297e-02  5.0872e-03  2.1374e-02  3.5364e+00  1.7271e-02  2.0701e-02  6.2140e-03  0:14:00 1870
   131  1.6618e-02  5.0741e-03  2.1460e-02  3.6367e+00  1.6595e-02  2.0652e-02  6.2368e-03  0:17:26 1869
   132  1.5640e-02  5.0505e-03  2.1457e-02  3.7145e+00  1.5619e-02  2.0654e-02  6.2670e-03  0:13:56 1868

  iter  continuity  x-velocity  y-velocity  z-velocity      energy           k       omega     time/iter
   133  1.4504e-02  5.0322e-03  2.1398e-02  3.7743e+00  1.4486e-02  2.0701e-02  6.2885e-03  0:11:08 1867
   134  1.3398e-02  5.0142e-03  2.1337e-02  3.8145e+00  1.3383e-02  2.0701e-02  6.2904e-03  0:15:08 1866
   135  1.2487e-02  4.9958e-03  2.1271e-02  3.8471e+00  1.2474e-02  2.0364e-02  6.2707e-03  0:12:06 1865
   136  1.1941e-02  4.9766e-03  2.1146e-02  3.8615e+00  1.1931e-02  2.0005e-02  6.2775e-03  0:15:53 1864
   137  1.1703e-02  4.9502e-03  2.0939e-02  3.8610e+00  1.1694e-02  1.9598e-02  6.2487e-03  0:12:42 1863
   138  1.1736e-02  4.8818e-03  2.0698e-02  3.8366e+00  1.1728e-02  1.9349e-02  6.1910e-03  0:16:22 1862
   139  1.1889e-02  4.8013e-03  2.0445e-02  3.7891e+00  1.1881e-02  1.9222e-02  6.1358e-03  0:13:05 1861
   140  1.2099e-02  4.7352e-03  2.0170e-02  3.7302e+00  1.2091e-02  1.9025e-02  6.0816e-03  0:16:40 1860
   141  1.2369e-02  4.6578e-03  1.9889e-02  3.6530e+00  1.2361e-02  1.8556e-02  5.9954e-03  0:13:19 1859
   142  1.2717e-02  4.5920e-03  1.9601e-02  3.5750e+00  1.2710e-02  1.8104e-02  5.9098e-03  0:16:51 1858
   143  1.3089e-02  4.5322e-03  1.9300e-02  3.5043e+00  1.3083e-02  1.7746e-02  5.8407e-03  0:13:28 1857

  iter  continuity  x-velocity  y-velocity  z-velocity      energy           k       omega     time/iter
   144  1.3599e-02  4.4596e-03  1.9009e-02  3.4412e+00  1.3594e-02  1.7474e-02  5.7742e-03  0:16:57 1856
   145  1.4201e-02  4.3396e-03  1.8747e-02  3.3924e+00  1.4198e-02  1.7256e-02  5.7371e-03  0:13:33 1855
   146  1.4833e-02  4.1883e-03  1.8488e-02  3.3619e+00  1.4832e-02  1.6883e-02  5.6785e-03  0:17:01 1854
   147  1.5424e-02  4.0383e-03  1.8253e-02  3.3405e+00  1.5424e-02  1.6617e-02  5.6280e-03  0:13:37 1853
   148  1.5973e-02  3.8999e-03  1.7997e-02  3.3266e+00  1.5974e-02  1.6217e-02  5.5807e-03  0:17:03 1852
   149  1.6565e-02  3.7688e-03  1.7752e-02  3.3172e+00  1.6567e-02  1.5759e-02  5.5137e-03  0:13:38 1851
   150  1.7198e-02  3.6617e-03  1.7533e-02  3.3165e+00  1.7201e-02  1.5308e-02  5.4343e-03  0:17:04 1850
   151  1.7627e-02  3.5598e-03  1.7328e-02  3.3301e+00  1.7631e-02  1.4863e-02  5.3395e-03  0:13:39 1849
   152  1.8054e-02  3.4592e-03  1.7016e-02  3.3577e+00  1.8059e-02  1.4438e-02  5.2656e-03  0:17:04 1848
   153  1.8372e-02  3.3694e-03  1.6800e-02  3.4003e+00  1.8378e-02  1.3956e-02  5.2028e-03  0:13:39 1847
   154  1.8528e-02  3.2899e-03  1.6648e-02  3.4592e+00  1.8535e-02  1.3492e-02  5.1230e-03  0:17:04 1846

  iter  continuity  x-velocity  y-velocity  z-velocity      energy           k       omega     time/iter
   155  1.8504e-02  3.2067e-03  1.6545e-02  3.5259e+00  1.8512e-02  1.3102e-02  5.0609e-03  0:13:39 1845
   156  1.8308e-02  3.1269e-03  1.6492e-02  3.5594e+00  1.8315e-02  1.2750e-02  4.9910e-03  0:17:04 1844
   157  1.7940e-02  3.0607e-03  1.6463e-02  3.5381e+00  1.7947e-02  1.2403e-02  4.9169e-03  0:13:38 1843
   158  1.7345e-02  2.9753e-03  1.6151e-02  3.5128e+00  1.7350e-02  1.2080e-02  4.8522e-03  0:10:54 1842
   159  1.6495e-02  2.8970e-03  1.6103e-02  3.5018e+00  1.6498e-02  1.1787e-02  4.7822e-03  0:14:51 1841
   160  1.5492e-02  2.8451e-03  1.6071e-02  3.5207e+00  1.5492e-02  1.1566e-02  4.7113e-03  0:11:53 1840
   161  1.4402e-02  2.8018e-03  1.6063e-02  3.5364e+00  1.4399e-02  1.1373e-02  4.6463e-03  0:15:38 1839
   162  1.3300e-02  2.7726e-03  1.6091e-02  3.5601e+00  1.3293e-02  1.1190e-02  4.5847e-03  0:12:30 1838
   163  1.2253e-02  2.7494e-03  1.6152e-02  3.6020e+00  1.2243e-02  1.1033e-02  4.5388e-03  0:16:07 1837
   164  1.1298e-02  2.7326e-03  1.6235e-02  3.6767e+00  1.1285e-02  1.0855e-02  4.5165e-03  0:12:53 1836
   165  1.0420e-02  2.7180e-03  1.6327e-02  3.7349e+00  1.0406e-02  1.0743e-02  4.5271e-03  0:16:25 1835

  iter  continuity  x-velocity  y-velocity  z-velocity      energy           k       omega     time/iter
   166  9.6708e-03  2.7250e-03  1.6435e-02  3.7788e+00  9.6549e-03  1.0665e-02  4.5496e-03  0:13:08 1834
   167  9.0134e-03  2.7340e-03  1.6570e-02  3.8205e+00  8.9968e-03  1.0623e-02  4.5712e-03  0:16:36 1833
   168  8.4413e-03  2.7376e-03  1.6722e-02  3.8817e+00  8.4248e-03  1.0558e-02  4.6092e-03  0:13:17 1832
   169  7.9629e-03  2.7415e-03  1.6883e-02  3.9920e+00  7.9470e-03  1.0489e-02  4.6328e-03  0:16:43 1831
   170  7.5527e-03  2.7522e-03  1.7045e-02  4.1372e+00  7.5377e-03  1.0465e-02  4.6581e-03  0:13:22 1830
   171  7.1599e-03  2.7728e-03  1.7206e-02  4.3150e+00  7.1459e-03  1.0471e-02  4.6899e-03  0:16:47 1829
   172  6.8956e-03  2.8059e-03  1.7355e-02  4.5096e+00  6.8832e-03  1.0513e-02  4.7347e-03  0:13:25 1828
   173  6.7093e-03  2.8417e-03  1.7487e-02  4.6806e+00  6.6988e-03  1.0585e-02  4.7722e-03  0:16:49 1827
   174  6.5621e-03  2.8833e-03  1.7600e-02  4.7945e+00  6.5533e-03  1.0684e-02  4.8329e-03  0:13:27 1826
   175  6.4528e-03  2.9286e-03  1.7695e-02  4.8533e+00  6.4456e-03  1.0865e-02  4.8779e-03  0:16:50 1825
   176  6.4369e-03  2.9733e-03  1.7770e-02  4.8504e+00  6.4312e-03  1.1060e-02  4.9508e-03  0:13:28 1824

  iter  continuity  x-velocity  y-velocity  z-velocity      energy           k       omega     time/iter
   177  6.5642e-03  3.0141e-03  1.7827e-02  4.7612e+00  6.5603e-03  1.1226e-02  5.0099e-03  0:16:50 1823
   178  6.8637e-03  3.0634e-03  1.7858e-02  4.6016e+00  6.8620e-03  1.1486e-02  5.0810e-03  0:13:28 1822
   179  7.3587e-03  3.1148e-03  1.7872e-02  4.3759e+00  7.3594e-03  1.1753e-02  5.1591e-03  0:16:50 1821
   180  8.1151e-03  3.1497e-03  1.7872e-02  4.1104e+00  8.1189e-03  1.1967e-02  5.2140e-03  0:13:28 1820
   181  9.1140e-03  3.1682e-03  1.7857e-02  3.8610e+00  9.1211e-03  1.2135e-02  5.2560e-03  0:16:50 1819
   182  1.0331e-02  3.1731e-03  1.7827e-02  3.6603e+00  1.0342e-02  1.2154e-02  5.3051e-03  0:19:31 1818
   183  1.1746e-02  3.1654e-03  1.7772e-02  3.5414e+00  1.1760e-02  1.2262e-02  5.3436e-03  0:15:36 1817
   184  1.3331e-02  3.1481e-03  1.7696e-02  3.4955e+00  1.3349e-02  1.2303e-02  5.3774e-03  0:18:32 1816
   185  1.5091e-02  3.1250e-03  1.7593e-02  3.5003e+00  1.5112e-02  1.2244e-02  5.3908e-03  0:14:49 1815
   186  1.6962e-02  3.1020e-03  1.7457e-02  3.5039e+00  1.6987e-02  1.2186e-02  5.3729e-03  0:17:54 1814
   187  1.8910e-02  3.0838e-03  1.7289e-02  3.4904e+00  1.8939e-02  1.2090e-02  5.3576e-03  0:14:18 1813

  iter  continuity  x-velocity  y-velocity  z-velocity      energy           k       omega     time/iter
   188  2.1009e-02  3.0638e-03  1.7115e-02  3.4490e+00  2.1041e-02  1.1952e-02  5.3679e-03  0:17:29 1812
   189  2.2585e-02  3.0429e-03  1.6920e-02  3.4187e+00  2.2619e-02  1.1775e-02  5.3740e-03  0:13:58 1811
   190  2.3858e-02  3.0284e-03  1.6703e-02  3.4668e+00  2.3893e-02  1.1581e-02  5.4189e-03  0:17:12 1810
   191  2.4806e-02  3.0347e-03  1.6487e-02  3.5971e+00  2.4841e-02  1.1511e-02  5.4536e-03  0:13:45 1809
   192  2.5517e-02  3.0622e-03  1.6266e-02  3.6347e+00  2.5551e-02  1.1451e-02  5.4803e-03  0:17:02 1808
   193  2.6087e-02  3.1106e-03  1.6052e-02  3.7103e+00  2.6119e-02  1.1385e-02  5.4665e-03  0:13:37 1807
   194  2.6316e-02  3.1878e-03  1.5864e-02  3.8411e+00  2.6345e-02  1.1342e-02  5.4572e-03  0:16:54 1806
   195  2.6313e-02  3.2875e-03  1.5716e-02  3.9185e+00  2.6341e-02  1.1298e-02  5.4198e-03  0:13:31 1805
   196  2.6061e-02  3.4119e-03  1.5613e-02  4.0687e+00  2.6085e-02  1.1284e-02  5.3799e-03  0:16:49 1804
   197  2.5451e-02  3.5528e-03  1.5536e-02  4.2533e+00  2.5471e-02  1.1153e-02  5.3651e-03  0:13:27 1803
   198  2.4503e-02  3.7120e-03  1.5470e-02  4.3928e+00  2.4519e-02  1.0962e-02  5.3565e-03  0:16:46 1802

  iter  continuity  x-velocity  y-velocity  z-velocity      energy           k       omega     time/iter
   199  2.3320e-02  3.8794e-03  1.5386e-02  4.4023e+00  2.3331e-02  1.0788e-02  5.3351e-03  0:13:24 1801
   200  2.1887e-02  4.0557e-03  1.5249e-02  4.2623e+00  2.1894e-02  1.0653e-02  5.3142e-03  0:16:43 1800
   201  2.0158e-02  4.2199e-03  1.5033e-02  4.2420e+00  2.0159e-02  1.0589e-02  5.3044e-03  0:13:22 1799
   202  1.8231e-02  4.3669e-03  1.4729e-02  4.1730e+00  1.8226e-02  1.0534e-02  5.2859e-03  0:16:41 1798
   203  1.6257e-02  4.4886e-03  1.4335e-02  4.2109e+00  1.6246e-02  1.0489e-02  5.2572e-03  0:13:20 1797
   204  1.4403e-02  4.5745e-03  1.3885e-02  4.3892e+00  1.4388e-02  1.0442e-02  5.2453e-03  0:16:39 1796
   205  1.2771e-02  4.6275e-03  1.3422e-02  4.4890e+00  1.2750e-02  1.0389e-02  5.2308e-03  0:13:19 1795
   206  1.1445e-02  4.6475e-03  1.3006e-02  4.5366e+00  1.1421e-02  1.0355e-02  5.1673e-03  0:16:37 1794
   207  1.0490e-02  4.6377e-03  1.2682e-02  4.5437e+00  1.0463e-02  1.0306e-02  5.1188e-03  0:13:17 1793
   208  9.9467e-03  4.6042e-03  1.2463e-02  4.5385e+00  9.9197e-03  1.0245e-02  5.0801e-03  0:16:36 1792
   209  9.7685e-03  4.5568e-03  1.2368e-02  4.5360e+00  9.7427e-03  1.0180e-02  5.0405e-03  0:13:16 1791

  iter  continuity  x-velocity  y-velocity  z-velocity      energy           k       omega     time/iter
   210  9.8457e-03  4.5114e-03  1.2382e-02  4.6848e+00  9.8221e-03  1.0174e-02  5.0083e-03  0:16:35 1790
   211  1.0088e-02  4.4755e-03  1.2470e-02  4.8541e+00  1.0067e-02  1.0187e-02  4.9724e-03  0:13:15 1789
   212  1.0352e-02  4.4634e-03  1.2591e-02  4.9866e+00  1.0333e-02  1.0230e-02  4.9356e-03  0:16:34 1788
   213  1.0559e-02  4.4788e-03  1.2709e-02  5.0813e+00  1.0542e-02  1.0306e-02  4.8943e-03  0:13:14 1787
   214  1.0647e-02  4.5254e-03  1.2792e-02  5.0439e+00  1.0631e-02  1.0427e-02  4.8714e-03  0:16:32 1786
   215  1.0591e-02  4.5948e-03  1.2825e-02  4.9450e+00  1.0575e-02  1.0609e-02  4.8624e-03  0:13:13 1785
   216  1.0462e-02  4.6829e-03  1.2797e-02  4.7931e+00  1.0445e-02  1.0840e-02  4.8669e-03  0:16:31 1784
   217  1.0325e-02  4.7843e-03  1.2717e-02  4.6723e+00  1.0306e-02  1.1000e-02  4.8767e-03  0:13:13 1783
   218  1.0264e-02  4.8866e-03  1.2592e-02  4.5411e+00  1.0244e-02  1.1118e-02  4.8579e-03  0:16:30 1782
   219  1.0182e-02  4.9592e-03  1.2431e-02  4.4994e+00  1.0158e-02  1.1269e-02  4.8554e-03  0:13:12 1781
   220  1.0282e-02  5.0223e-03  1.2271e-02  4.5609e+00  1.0255e-02  1.1372e-02  4.8382e-03  0:16:29 1780

  iter  continuity  x-velocity  y-velocity  z-velocity      energy           k       omega     time/iter
   221  1.0527e-02  5.0495e-03  1.2135e-02  4.8368e+00  1.0497e-02  1.1431e-02  4.8231e-03  0:13:11 1779
   222  1.0914e-02  5.0563e-03  1.2041e-02  5.2334e+00  1.0880e-02  1.1484e-02  4.7992e-03  0:10:32 1778
   223  1.1427e-02  5.0256e-03  1.1993e-02  5.6351e+00  1.1391e-02  1.1560e-02  4.7680e-03  0:14:21 1777
   224  1.1993e-02  4.9704e-03  1.1966e-02  6.0766e+00  1.1955e-02  1.1636e-02  4.7394e-03  0:11:28 1776
   225  1.2556e-02  4.9035e-03  1.1966e-02  6.5107e+00  1.2516e-02  1.1671e-02  4.7124e-03  0:15:05 1775
   226  1.3081e-02  4.8294e-03  1.1997e-02  6.8665e+00  1.3039e-02  1.1686e-02  4.6914e-03  0:12:04 1774
   227  1.3533e-02  4.7490e-03  1.2071e-02  7.0930e+00  1.3490e-02  1.1727e-02  4.6531e-03  0:15:33 1773
   228  1.3876e-02  4.6432e-03  1.2184e-02  7.2159e+00  1.3831e-02  1.1799e-02  4.6198e-03  0:12:26 1772
   229  1.4092e-02  4.5340e-03  1.2315e-02  7.2675e+00  1.4046e-02  1.1857e-02  4.5897e-03  0:15:51 1771
   230  1.4196e-02  4.4293e-03  1.2426e-02  7.2668e+00  1.4148e-02  1.1842e-02  4.5496e-03  0:12:40 1770
   231  1.4201e-02  4.3343e-03  1.2536e-02  7.1387e+00  1.4152e-02  1.1800e-02  4.5105e-03  0:16:02 1769

  iter  continuity  x-velocity  y-velocity  z-velocity      energy           k       omega     time/iter
   232  1.4155e-02  4.2387e-03  1.2655e-02  6.9461e+00  1.4105e-02  1.1728e-02  4.4970e-03  0:12:49 1768
   233  1.4048e-02  4.1305e-03  1.2780e-02  6.6570e+00  1.3996e-02  1.1618e-02  4.4839e-03  0:16:08 1767
   234  1.3935e-02  4.0499e-03  1.2910e-02  6.2665e+00  1.3882e-02  1.1524e-02  4.4503e-03  0:18:47 1766
   235  1.3874e-02  3.9909e-03  1.3037e-02  5.8465e+00  1.3820e-02  1.1415e-02  4.4237e-03  0:15:01 1765
   236  1.3909e-02  3.9307e-03  1.3163e-02  5.4125e+00  1.3855e-02  1.1297e-02  4.4257e-03  0:17:53 1764
   237  1.4075e-02  3.8755e-03  1.3282e-02  4.9686e+00  1.4019e-02  1.1138e-02  4.4343e-03  0:14:18 1763
   238  1.4287e-02  3.8259e-03  1.3352e-02  4.5582e+00  1.4230e-02  1.1006e-02  4.4438e-03  0:17:19 1762
   239  1.4524e-02  3.7710e-03  1.3353e-02  4.1946e+00  1.4465e-02  1.0885e-02  4.4430e-03  0:13:50 1761
   240  1.4792e-02  3.7090e-03  1.3304e-02  3.8924e+00  1.4732e-02  1.0786e-02  4.4339e-03  0:16:56 1760
   241  1.4997e-02  3.6368e-03  1.3187e-02  3.5883e+00  1.4936e-02  1.0703e-02  4.4315e-03  0:13:32 1759
   242  1.5179e-02  3.5494e-03  1.3017e-02  3.3036e+00  1.5117e-02  1.0617e-02  4.4483e-03  0:16:41 1758

  iter  continuity  x-velocity  y-velocity  z-velocity      energy           k       omega     time/iter
   243  1.5374e-02  3.4504e-03  1.2803e-02  3.0810e+00  1.5311e-02  1.0542e-02  4.4526e-03  0:13:20 1757
   244  1.5471e-02  3.3443e-03  1.2566e-02  2.9556e+00  1.5408e-02  1.0469e-02  4.4524e-03  0:16:31 1756
   245  1.5525e-02  3.2342e-03  1.2270e-02  2.9783e+00  1.5461e-02  1.0417e-02  4.4468e-03  0:13:12 1755
   246  1.5560e-02  3.1275e-03  1.2035e-02  3.0498e+00  1.5497e-02  1.0338e-02  4.4409e-03  0:16:24 1754
   247  1.5545e-02  3.0320e-03  1.1864e-02  3.1989e+00  1.5483e-02  1.0265e-02  4.4291e-03  0:13:07 1753
   248  1.5495e-02  2.9503e-03  1.1738e-02  3.4280e+00  1.5433e-02  1.0184e-02  4.4077e-03  0:16:20 1752
   249  1.5417e-02  2.8809e-03  1.1667e-02  3.6542e+00  1.5357e-02  1.0121e-02  4.3815e-03  0:13:03 1751
   250  1.5284e-02  2.8269e-03  1.1657e-02  3.8792e+00  1.5224e-02  1.0056e-02  4.3431e-03  0:16:16 1750
   251  1.5107e-02  2.7861e-03  1.1698e-02  4.1223e+00  1.5049e-02  1.0008e-02  4.3064e-03  0:13:01 1749
   252  1.4903e-02  2.7559e-03  1.1778e-02  4.3085e+00  1.4846e-02  9.9472e-03  4.2777e-03  0:10:24 1748
   253  1.4672e-02  2.7377e-03  1.1892e-02  4.4730e+00  1.4617e-02  9.9171e-03  4.2398e-03  0:14:08 1747

  iter  continuity  x-velocity  y-velocity  z-velocity      energy           k       omega     time/iter
   254  1.4400e-02  2.7342e-03  1.2011e-02  4.6290e+00  1.4346e-02  9.8838e-03  4.2017e-03  0:11:18 1746
   255  1.4118e-02  2.7389e-03  1.2126e-02  4.7232e+00  1.4066e-02  9.8817e-03  4.1608e-03  0:14:51 1745
   256  1.3845e-02  2.7511e-03  1.2253e-02  4.7762e+00  1.3795e-02  9.8880e-03  4.1189e-03  0:11:53 1744
   257  1.3580e-02  2.7714e-03  1.2393e-02  4.7919e+00  1.3532e-02  9.9069e-03  4.0676e-03  0:15:18 1743
   258  1.3335e-02  2.7958e-03  1.2552e-02  4.7930e+00  1.3289e-02  9.9226e-03  4.0215e-03  0:12:14 1742
   259  1.3104e-02  2.8259e-03  1.2734e-02  4.7514e+00  1.3060e-02  9.9595e-03  3.9687e-03  0:15:35 1741
   260  1.2901e-02  2.8584e-03  1.2931e-02  4.6738e+00  1.2858e-02  9.9982e-03  3.9480e-03  0:12:28 1740
   261  1.2703e-02  2.8937e-03  1.3138e-02  4.5791e+00  1.2662e-02  1.0014e-02  3.9180e-03  0:15:46 1739
   262  1.2500e-02  2.9440e-03  1.3349e-02  4.4821e+00  1.2460e-02  1.0031e-02  3.8945e-03  0:12:36 1738
   263  1.2302e-02  2.9923e-03  1.3562e-02  4.4141e+00  1.2264e-02  1.0040e-02  3.8531e-03  0:15:52 1737
   264  1.2107e-02  3.0378e-03  1.3770e-02  4.3639e+00  1.2071e-02  1.0045e-02  3.8183e-03  0:12:41 1736

  iter  continuity  x-velocity  y-velocity  z-velocity      energy           k       omega     time/iter
   265  1.1937e-02  3.0749e-03  1.3970e-02  4.3518e+00  1.1902e-02  1.0080e-02  3.7860e-03  0:15:56 1735
   266  1.1781e-02  3.0984e-03  1.4159e-02  4.3559e+00  1.1748e-02  1.0108e-02  3.7622e-03  0:12:44 1734
   267  1.1618e-02  3.1154e-03  1.4334e-02  4.3961e+00  1.1586e-02  1.0153e-02  3.7480e-03  0:15:57 1733
   268  1.1462e-02  3.1275e-03  1.4494e-02  4.4999e+00  1.1433e-02  1.0205e-02  3.7535e-03  0:12:46 1732
   269  1.1314e-02  3.1378e-03  1.4627e-02  4.7082e+00  1.1285e-02  1.0218e-02  3.7380e-03  0:15:58 1731
   270  1.1169e-02  3.1447e-03  1.4735e-02  5.0492e+00  1.1142e-02  1.0199e-02  3.6940e-03  0:12:46 1730
   271  1.1024e-02  3.1411e-03  1.4823e-02  5.6041e+00  1.0998e-02  1.0149e-02  3.6765e-03  0:15:58 1729
   272  1.0870e-02  3.1298e-03  1.4891e-02  6.4230e+00  1.0845e-02  1.0085e-02  3.6542e-03  0:12:46 1728
   273  1.0717e-02  3.1106e-03  1.4936e-02  7.4220e+00  1.0693e-02  1.0005e-02  3.6343e-03  0:10:13 1727
   274  1.0564e-02  3.0855e-03  1.4958e-02  8.6538e+00  1.0540e-02  9.9561e-03  3.6077e-03  0:13:55 1726
   275  1.0391e-02  3.0557e-03  1.4964e-02  9.8759e+00  1.0369e-02  9.8925e-03  3.5860e-03  0:11:08 1725

  iter  continuity  x-velocity  y-velocity  z-velocity      energy           k       omega     time/iter
   276  1.0169e-02  3.0246e-03  1.4957e-02  1.1151e+01  1.0148e-02  9.8525e-03  3.5590e-03  0:14:39 1724
   277  9.9106e-03  2.9921e-03  1.4941e-02  1.2615e+01  9.8903e-03  9.8022e-03  3.5413e-03  0:17:27 1723
   278  9.6043e-03  2.9603e-03  1.4919e-02  1.4157e+01  9.5851e-03  9.7182e-03  3.5502e-03  0:13:57 1722
   279  9.2321e-03  2.9287e-03  1.4892e-02  1.5793e+01  9.2144e-03  9.6390e-03  3.5549e-03  0:16:54 1721
   280  8.8099e-03  2.8988e-03  1.4860e-02  1.7209e+01  8.7939e-03  9.5630e-03  3.5677e-03  0:13:30 1720
   281  8.3687e-03  2.8727e-03  1.4823e-02  1.8279e+01  8.3545e-03  9.4957e-03  3.5781e-03  0:16:32 1719
   282  8.0008e-03  2.8526e-03  1.4786e-02  1.8885e+01  7.9881e-03  9.4123e-03  3.5453e-03  0:13:13 1718
   283  7.7889e-03  2.8388e-03  1.4749e-02  1.9155e+01  7.7769e-03  9.3370e-03  3.5298e-03  0:16:17 1717
   284  7.7307e-03  2.8310e-03  1.4712e-02  1.9414e+01  7.7184e-03  9.2896e-03  3.5047e-03  0:13:01 1716
   285  7.8012e-03  2.8305e-03  1.4674e-02  1.9865e+01  7.7875e-03  9.2552e-03  3.5070e-03  0:16:08 1715
   286  7.9257e-03  2.8376e-03  1.4640e-02  2.0495e+01  7.9100e-03  9.2277e-03  3.5043e-03  0:12:54 1714

  iter  continuity  x-velocity  y-velocity  z-velocity      energy           k       omega     time/iter
   287  8.1272e-03  2.8520e-03  1.4605e-02  2.1153e+01  8.1091e-03  9.1789e-03  3.5048e-03  0:10:19 1713
   288  8.2038e-03  2.8721e-03  1.4572e-02  2.1767e+01  8.1841e-03  9.1185e-03  3.4845e-03  0:13:57 1712
   289  8.2031e-03  2.8971e-03  1.4544e-02  2.2547e+01  8.1826e-03  9.1225e-03  3.4597e-03  0:11:09 1711
   290  8.1917e-03  2.9274e-03  1.4524e-02  2.3749e+01  8.1706e-03  9.0258e-03  3.4242e-03  0:14:37 1710
   291  8.1649e-03  2.9592e-03  1.4510e-02  2.5433e+01  8.1433e-03  8.9347e-03  3.3632e-03  0:17:23 1709
   292  8.1304e-03  2.9947e-03  1.4501e-02  2.7468e+01  8.1083e-03  8.8370e-03  3.3093e-03  0:13:54 1708
   293  8.0926e-03  3.0326e-03  1.4493e-02  2.9664e+01  8.0700e-03  8.7453e-03  3.2910e-03  0:11:07 1707
   294  8.0534e-03  3.0716e-03  1.4485e-02  3.1408e+01  8.0302e-03  8.6202e-03  3.2862e-03  0:14:34 1706
   295  8.0206e-03  3.1101e-03  1.4478e-02  3.2897e+01  7.9969e-03  8.5035e-03  3.2767e-03  0:11:39 1705
   296  8.0073e-03  3.1464e-03  1.4464e-02  3.4162e+01  7.9829e-03  8.3628e-03  3.2858e-03  0:15:00 1704
   297  8.0076e-03  3.1800e-03  1.4438e-02  3.5121e+01  7.9823e-03  8.2428e-03  3.2643e-03  0:11:59 1703

  iter  continuity  x-velocity  y-velocity  z-velocity      energy           k       omega     time/iter
   298  8.0264e-03  3.2086e-03  1.4396e-02  3.6013e+01  8.0003e-03  8.1233e-03  3.2224e-03  0:15:16 1702
   299  8.0696e-03  3.2328e-03  1.4339e-02  3.6878e+01  8.0425e-03  7.9975e-03  3.2192e-03  0:12:12 1701
   300  8.1447e-03  3.2538e-03  1.4272e-02  3.7690e+01  8.1166e-03  7.8617e-03  3.2234e-03  0:15:25 1700
   301  8.2461e-03  3.2719e-03  1.4190e-02  3.8390e+01  8.2170e-03  7.7259e-03  3.2080e-03  0:12:20 1699
   302  8.3760e-03  3.2867e-03  1.4096e-02  3.9219e+01  8.3459e-03  7.5951e-03  3.2031e-03  0:15:31 1698
   303  8.5257e-03  3.2994e-03  1.3991e-02  4.0211e+01  8.4947e-03  7.5026e-03  3.1985e-03  0:12:24 1697
   304  8.6912e-03  3.3109e-03  1.3878e-02  4.1443e+01  8.6594e-03  7.4335e-03  3.1924e-03  0:15:34 1696
   305  8.8735e-03  3.3202e-03  1.3762e-02  4.2897e+01  8.8410e-03  7.3896e-03  3.2015e-03  0:12:27 1695
   306  9.0718e-03  3.3278e-03  1.3641e-02  4.4366e+01  9.0387e-03  7.3422e-03  3.1914e-03  0:15:36 1694
   307  9.2868e-03  3.3343e-03  1.3517e-02  4.6046e+01  9.2533e-03  7.2925e-03  3.1921e-03  0:12:28 1693
   308  9.5150e-03  3.3409e-03  1.3391e-02  4.7858e+01  9.4812e-03  7.2542e-03  3.2077e-03  0:15:37 1692

  iter  continuity  x-velocity  y-velocity  z-velocity      energy           k       omega     time/iter
   309  9.7609e-03  3.3488e-03  1.3266e-02  4.9618e+01  9.7270e-03  7.2348e-03  3.2314e-03  0:12:29 1691
   310  1.0027e-02  3.3593e-03  1.3146e-02  5.1237e+01  9.9930e-03  7.2289e-03  3.2390e-03  0:15:37 1690
   311  1.0310e-02  3.3709e-03  1.3030e-02  5.2517e+01  1.0276e-02  7.2407e-03  3.2508e-03  0:12:29 1689
   312  1.0611e-02  3.3845e-03  1.2919e-02  5.3658e+01  1.0577e-02  7.2730e-03  3.2580e-03  0:15:36 1688
   313  1.0930e-02  3.4008e-03  1.2817e-02  5.4665e+01  1.0896e-02  7.3113e-03  3.2602e-03  0:12:29 1687
   314  1.1285e-02  3.4196e-03  1.2735e-02  5.5613e+01  1.1251e-02  7.3619e-03  3.2736e-03  0:15:36 1686
   315  1.1687e-02  3.4407e-03  1.2684e-02  5.6644e+01  1.1654e-02  7.4212e-03  3.3042e-03  0:12:28 1685
   316  1.2042e-02  3.4663e-03  1.2655e-02  5.7826e+01  1.2010e-02  7.4953e-03  3.3476e-03  0:15:35 1684
   317  1.2429e-02  3.4960e-03  1.2651e-02  5.8876e+01  1.2398e-02  7.5904e-03  3.3855e-03  0:12:28 1683
   318  1.2881e-02  3.5296e-03  1.2679e-02  5.9946e+01  1.2851e-02  7.6954e-03  3.4154e-03  0:15:34 1682
   319  1.3417e-02  3.5652e-03  1.2732e-02  6.0834e+01  1.3389e-02  7.7938e-03  3.4516e-03  0:12:27 1681

  iter  continuity  x-velocity  y-velocity  z-velocity      energy           k       omega     time/iter
   320  1.3914e-02  3.6024e-03  1.2821e-02  6.1394e+01  1.3887e-02  7.9066e-03  3.4832e-03  0:15:33 1680
   321  1.4406e-02  3.6449e-03  1.2901e-02  6.1582e+01  1.4380e-02  8.0162e-03  3.5292e-03  0:12:26 1679
   322  1.4943e-02  3.6911e-03  1.3002e-02  6.1788e+01  1.4919e-02  8.1259e-03  3.5665e-03  0:15:32 1678
   323  1.5453e-02  3.7408e-03  1.3130e-02  6.2253e+01  1.5431e-02  8.2663e-03  3.6231e-03  0:12:25 1677
   324  1.6171e-02  3.7820e-03  1.3266e-02  6.3198e+01  1.6151e-02  8.3888e-03  3.6699e-03  0:15:31 1676
   325  1.6962e-02  3.8200e-03  1.3396e-02  6.4843e+01  1.6945e-02  8.4740e-03  3.6968e-03  0:12:24 1675
   326  1.7762e-02  3.8604e-03  1.3519e-02  6.7052e+01  1.7749e-02  8.5566e-03  3.7323e-03  0:09:55 1674
   327  1.8453e-02  3.9050e-03  1.3630e-02  6.9846e+01  1.8442e-02  8.6636e-03  3.7458e-03  0:13:30 1673
   328  1.9042e-02  3.9548e-03  1.3729e-02  7.3209e+01  1.9033e-02  8.7509e-03  3.7490e-03  0:10:48 1672
   329  1.9545e-02  4.0078e-03  1.3820e-02  7.7270e+01  1.9538e-02  8.8297e-03  3.7552e-03  0:14:12 1671
   330  1.9918e-02  4.0591e-03  1.3893e-02  8.1732e+01  1.9913e-02  8.8990e-03  3.7621e-03  0:11:21 1670

  iter  continuity  x-velocity  y-velocity  z-velocity      energy           k       omega     time/iter
   331  2.0130e-02  4.1063e-03  1.3939e-02  8.6342e+01  2.0127e-02  8.9710e-03  3.7574e-03  0:14:39 1669
   332  2.0194e-02  4.1499e-03  1.3961e-02  9.1271e+01  2.0192e-02  9.0223e-03  3.7441e-03  0:11:42 1668
   333  2.0116e-02  4.1903e-03  1.3959e-02  9.6457e+01  2.0116e-02  9.0723e-03  3.7274e-03  0:14:55 1667
   334  1.9917e-02  4.2277e-03  1.3934e-02  1.0159e+02  1.9917e-02  9.1744e-03  3.7120e-03  0:11:56 1666
   335  1.9613e-02  4.2620e-03  1.3886e-02  1.0632e+02  1.9614e-02  9.2758e-03  3.6869e-03  0:15:05 1665
   336  1.9209e-02  4.2948e-03  1.3815e-02  1.1057e+02  1.9210e-02  9.3242e-03  3.6595e-03  0:12:04 1664
   337  1.8730e-02  4.3234e-03  1.3735e-02  1.1397e+02  1.8730e-02  9.3327e-03  3.6293e-03  0:15:11 1663
   338  1.8202e-02  4.3482e-03  1.3662e-02  1.1602e+02  1.8201e-02  9.3311e-03  3.6071e-03  0:12:09 1662
   339  1.7677e-02  4.3698e-03  1.3610e-02  1.1776e+02  1.7675e-02  9.3474e-03  3.5822e-03  0:15:15 1661
   340  1.7162e-02  4.3892e-03  1.3582e-02  1.1915e+02  1.7160e-02  9.3421e-03  3.5669e-03  0:12:11 1660
   341  1.6683e-02  4.4067e-03  1.3582e-02  1.2017e+02  1.6680e-02  9.3969e-03  3.5453e-03  0:15:16 1659

  iter  continuity  x-velocity  y-velocity  z-velocity      energy           k       omega     time/iter
   342  1.6241e-02  4.4286e-03  1.3611e-02  1.2117e+02  1.6239e-02  9.4629e-03  3.5306e-03  0:12:13 1658
   343  1.5852e-02  4.4542e-03  1.3682e-02  1.2194e+02  1.5850e-02  9.4858e-03  3.5122e-03  0:15:17 1657
   344  1.5498e-02  4.4805e-03  1.3790e-02  1.2250e+02  1.5497e-02  9.5243e-03  3.4834e-03  0:17:45 1656
   345  1.5175e-02  4.5099e-03  1.3931e-02  1.2305e+02  1.5174e-02  9.5420e-03  3.4615e-03  0:14:11 1655
   346  1.4863e-02  4.5446e-03  1.4103e-02  1.2337e+02  1.4863e-02  9.5508e-03  3.4543e-03  0:16:51 1654
   347  1.4554e-02  4.5844e-03  1.4302e-02  1.2309e+02  1.4555e-02  9.6026e-03  3.4353e-03  0:13:29 1653
   348  1.4240e-02  4.6286e-03  1.4524e-02  1.2209e+02  1.4242e-02  9.6337e-03  3.3992e-03  0:16:17 1652
   349  1.3911e-02  4.6765e-03  1.4763e-02  1.2071e+02  1.3914e-02  9.6486e-03  3.3592e-03  0:13:01 1651
   350  1.3563e-02  4.7285e-03  1.5016e-02  1.1901e+02  1.3566e-02  9.7125e-03  3.3215e-03  0:15:54 1650
   351  1.3178e-02  4.7830e-03  1.5278e-02  1.1693e+02  1.3182e-02  9.7910e-03  3.2918e-03  0:12:43 1649
   352  1.2773e-02  4.8390e-03  1.5544e-02  1.1415e+02  1.2778e-02  9.8168e-03  3.2691e-03  0:15:40 1648

  iter  continuity  x-velocity  y-velocity  z-velocity      energy           k       omega     time/iter
   353  1.2352e-02  4.8952e-03  1.5812e-02  1.1069e+02  1.2356e-02  9.8462e-03  3.2473e-03  0:12:31 1647
   354  1.1934e-02  4.9476e-03  1.6074e-02  1.0704e+02  1.1938e-02  9.8024e-03  3.2209e-03  0:15:30 1646
   355  1.1510e-02  4.9936e-03  1.6324e-02  1.0352e+02  1.1515e-02  9.7706e-03  3.1924e-03  0:12:23 1645
   356  1.1077e-02  5.0324e-03  1.6557e-02  1.0025e+02  1.1081e-02  9.7577e-03  3.1656e-03  0:15:23 1644
   357  1.0613e-02  5.0625e-03  1.6773e-02  9.7366e+01  1.0617e-02  9.7277e-03  3.1441e-03  0:12:18 1643
   358  1.0096e-02  5.0871e-03  1.6976e-02  9.4973e+01  1.0099e-02  9.6577e-03  3.1250e-03  0:15:19 1642
   359  9.5177e-03  5.1022e-03  1.7157e-02  9.3036e+01  9.5197e-03  9.5668e-03  3.1152e-03  0:12:14 1641
   360  8.8947e-03  5.1064e-03  1.7318e-02  9.1753e+01  8.8954e-03  9.5337e-03  3.1006e-03  0:09:47 1640
   361  8.2560e-03  5.1030e-03  1.7459e-02  9.1119e+01  8.2552e-03  9.5141e-03  3.0804e-03  0:13:17 1639
   362  7.6300e-03  5.0958e-03  1.7583e-02  9.0988e+01  7.6275e-03  9.5113e-03  3.0711e-03  0:10:37 1638
   363  7.0313e-03  5.0837e-03  1.7688e-02  9.1293e+01  7.0270e-03  9.5285e-03  3.0646e-03  0:13:57 1637

  iter  continuity  x-velocity  y-velocity  z-velocity      energy           k       omega     time/iter
   364  6.5322e-03  5.0669e-03  1.7775e-02  9.1996e+01  6.5265e-03  9.4975e-03  3.0507e-03  0:11:09 1636
   365  6.1766e-03  5.0464e-03  1.7841e-02  9.3312e+01  6.1700e-03  9.4077e-03  3.0471e-03  0:14:22 1635
   366  5.9850e-03  5.0212e-03  1.7889e-02  9.5342e+01  5.9783e-03  9.2926e-03  3.0349e-03  0:11:29 1634
   367  5.9719e-03  4.9917e-03  1.7919e-02  9.8258e+01  5.9662e-03  9.1794e-03  3.0319e-03  0:14:38 1633
   368  6.1280e-03  4.9578e-03  1.7927e-02  1.0196e+02  6.1240e-03  9.1110e-03  3.0251e-03  0:11:42 1632
   369  6.3565e-03  4.9191e-03  1.7913e-02  1.0618e+02  6.3544e-03  9.0776e-03  3.0107e-03  0:14:47 1631
   370  6.6290e-03  4.8750e-03  1.7885e-02  1.1076e+02  6.6291e-03  9.0053e-03  2.9973e-03  0:11:49 1630
   371  6.9504e-03  4.8258e-03  1.7849e-02  1.1524e+02  6.9526e-03  8.9066e-03  2.9890e-03  0:14:53 1629
   372  7.3742e-03  4.7736e-03  1.7806e-02  1.1913e+02  7.3788e-03  8.7751e-03  2.9828e-03  0:11:54 1628
   373  7.9379e-03  4.7177e-03  1.7757e-02  1.2222e+02  7.9451e-03  8.6354e-03  2.9729e-03  0:14:56 1627
   374  8.1890e-03  4.6574e-03  1.7693e-02  1.2431e+02  8.1976e-03  8.5014e-03  2.9689e-03  0:11:56 1626

  iter  continuity  x-velocity  y-velocity  z-velocity      energy           k       omega     time/iter
   375  8.3997e-03  4.5949e-03  1.7622e-02  1.2548e+02  8.4094e-03  8.3626e-03  2.9599e-03  0:14:58 1625
   376  8.6112e-03  4.5283e-03  1.7548e-02  1.2587e+02  8.6219e-03  8.2428e-03  2.9511e-03  0:11:58 1624
   377  8.7320e-03  4.4590e-03  1.7472e-02  1.2563e+02  8.7434e-03  8.1498e-03  2.9468e-03  0:14:59 1623
   378  8.7955e-03  4.3890e-03  1.7399e-02  1.2498e+02  8.8075e-03  8.0603e-03  2.9398e-03  0:11:58 1622
   379  8.8462e-03  4.3188e-03  1.7328e-02  1.2392e+02  8.8587e-03  7.9601e-03  2.9382e-03  0:14:59 1621
   380  8.8061e-03  4.2504e-03  1.7259e-02  1.2270e+02  8.8188e-03  7.8626e-03  2.9389e-03  0:11:58 1620
   381  8.7360e-03  4.1858e-03  1.7201e-02  1.2124e+02  8.7489e-03  7.7708e-03  2.9228e-03  0:14:58 1619
   382  8.6349e-03  4.1228e-03  1.7155e-02  1.2000e+02  8.6479e-03  7.6934e-03  2.9075e-03  0:11:58 1618
   383  8.4396e-03  4.0622e-03  1.7122e-02  1.1900e+02  8.4524e-03  7.6159e-03  2.8980e-03  0:14:58 1617
   384  8.2722e-03  4.0062e-03  1.7105e-02  1.1839e+02  8.2848e-03  7.5654e-03  2.8837e-03  0:11:58 1616
   385  8.0855e-03  3.9560e-03  1.7104e-02  1.1827e+02  8.0977e-03  7.5260e-03  2.8718e-03  0:14:57 1615

  iter  continuity  x-velocity  y-velocity  z-velocity      energy           k       omega     time/iter
   386  7.8380e-03  3.9097e-03  1.7120e-02  1.1855e+02  7.8496e-03  7.4781e-03  2.8640e-03  0:11:57 1614
   387  7.5340e-03  3.8681e-03  1.7149e-02  1.1922e+02  7.5447e-03  7.4284e-03  2.8579e-03  0:09:33 1613
   388  7.1990e-03  3.8320e-03  1.7189e-02  1.2034e+02  7.2087e-03  7.3911e-03  2.8511e-03  0:13:01 1612
   389  6.8439e-03  3.8032e-03  1.7240e-02  1.2168e+02  6.8525e-03  7.3537e-03  2.8404e-03  0:10:24 1611
   390  6.4494e-03  3.7822e-03  1.7303e-02  1.2371e+02  6.4565e-03  7.3202e-03  2.8318e-03  0:13:41 1610
   391  6.0896e-03  3.7673e-03  1.7376e-02  1.2607e+02  6.0950e-03  7.2931e-03  2.8118e-03  0:10:56 1609
   392  5.8074e-03  3.7602e-03  1.7454e-02  1.2872e+02  5.8112e-03  7.2618e-03  2.7907e-03  0:14:06 1608
   393  5.6058e-03  3.7598e-03  1.7532e-02  1.3133e+02  5.6079e-03  7.2318e-03  2.7813e-03  0:11:17 1607
   394  5.5204e-03  3.7672e-03  1.7605e-02  1.3401e+02  5.5209e-03  7.1944e-03  2.7624e-03  0:14:22 1606
   395  5.5570e-03  3.7823e-03  1.7672e-02  1.3699e+02  5.5564e-03  7.1563e-03  2.7500e-03  0:11:29 1605
   396  5.7084e-03  3.8053e-03  1.7728e-02  1.4024e+02  5.7068e-03  7.1370e-03  2.7317e-03  0:14:32 1604

  iter  continuity  x-velocity  y-velocity  z-velocity      energy           k       omega     time/iter
   397  5.9364e-03  3.8345e-03  1.7775e-02  1.4302e+02  5.9342e-03  7.1139e-03  2.7325e-03  0:11:37 1603
   398  6.2014e-03  3.8694e-03  1.7819e-02  1.4537e+02  6.1988e-03  7.0868e-03  2.7299e-03  0:14:38 1602
   399  6.4726e-03  3.9081e-03  1.7851e-02  1.4684e+02  6.4698e-03  7.0578e-03  2.7209e-03  0:11:42 1601
   400  6.7277e-03  3.9514e-03  1.7873e-02  1.4752e+02  6.7247e-03  7.0239e-03  2.7061e-03  0:14:41 1600
   401  6.9457e-03  4.0004e-03  1.7882e-02  1.4779e+02  6.9425e-03  6.9893e-03  2.6840e-03  0:11:44 1599
   402  7.1045e-03  4.0567e-03  1.7882e-02  1.4777e+02  7.1010e-03  6.9567e-03  2.6759e-03  0:14:43 1598
   403  7.1924e-03  4.1198e-03  1.7869e-02  1.4732e+02  7.1885e-03  6.9231e-03  2.6711e-03  0:11:46 1597
   404  7.2132e-03  4.1878e-03  1.7842e-02  1.4638e+02  7.2089e-03  6.8811e-03  2.6555e-03  0:14:43 1596
   405  7.1645e-03  4.2580e-03  1.7799e-02  1.4493e+02  7.1597e-03  6.8390e-03  2.6435e-03  0:11:46 1595
   406  7.0532e-03  4.3211e-03  1.7681e-02  1.4291e+02  7.0479e-03  6.8037e-03  2.6235e-03  0:14:44 1594
   407  6.8981e-03  4.3832e-03  1.7587e-02  1.4098e+02  6.8922e-03  6.7598e-03  2.6075e-03  0:11:46 1593

  iter  continuity  x-velocity  y-velocity  z-velocity      energy           k       omega     time/iter
   408  6.7522e-03  4.4472e-03  1.7500e-02  1.3885e+02  6.7459e-03  6.7044e-03  2.5945e-03  0:09:25 1592
   409  6.6606e-03  4.5132e-03  1.7420e-02  1.3672e+02  6.6542e-03  6.6484e-03  2.5880e-03  0:12:50 1591
   410  6.6520e-03  4.5776e-03  1.7345e-02  1.3532e+02  6.6459e-03  6.5951e-03  2.5761e-03  0:10:15 1590
   411  6.7309e-03  4.6320e-03  1.7274e-02  1.3417e+02  6.7255e-03  6.5397e-03  2.5694e-03  0:13:30 1589
   412  6.8928e-03  4.6754e-03  1.7206e-02  1.3272e+02  6.8883e-03  6.4789e-03  2.5587e-03  0:10:47 1588
   413  7.1140e-03  4.7029e-03  1.7138e-02  1.3162e+02  7.1107e-03  6.4130e-03  2.5452e-03  0:13:55 1587
   414  7.3720e-03  4.7194e-03  1.7075e-02  1.3050e+02  7.3698e-03  6.3469e-03  2.5348e-03  0:11:08 1586
   415  7.6030e-03  4.7262e-03  1.7018e-02  1.2892e+02  7.6017e-03  6.2981e-03  2.5201e-03  0:14:11 1585
   416  7.7743e-03  4.7264e-03  1.6973e-02  1.2692e+02  7.7737e-03  6.2595e-03  2.5018e-03  0:11:20 1584
   417  7.8761e-03  4.7216e-03  1.6941e-02  1.2552e+02  7.8758e-03  6.2112e-03  2.4860e-03  0:14:20 1583
   418  7.9062e-03  4.7132e-03  1.6922e-02  1.2463e+02  7.9059e-03  6.1609e-03  2.4716e-03  0:11:28 1582

  iter  continuity  x-velocity  y-velocity  z-velocity      energy           k       omega     time/iter
   419  7.8681e-03  4.6984e-03  1.6914e-02  1.2292e+02  7.8675e-03  6.1047e-03  2.4523e-03  0:14:26 1581
   420  7.7810e-03  4.6736e-03  1.6916e-02  1.2049e+02  7.7800e-03  6.0540e-03  2.4323e-03  0:11:32 1580
   421  7.6793e-03  4.6390e-03  1.6924e-02  1.1986e+02  7.6777e-03  6.0116e-03  2.4193e-03  0:14:29 1579
   422  7.5793e-03  4.6003e-03  1.6936e-02  1.2097e+02  7.5771e-03  5.9773e-03  2.4091e-03  0:11:35 1578
   423  7.4841e-03  4.5580e-03  1.6945e-02  1.2273e+02  7.4813e-03  5.9392e-03  2.3910e-03  0:14:31 1577
   424  7.3991e-03  4.5067e-03  1.6954e-02  1.2486e+02  7.3957e-03  5.8927e-03  2.3740e-03  0:11:36 1576
   425  7.3214e-03  4.4467e-03  1.6962e-02  1.2776e+02  7.3175e-03  5.8399e-03  2.3637e-03  0:14:32 1575
   426  7.2614e-03  4.3785e-03  1.6966e-02  1.3081e+02  7.2571e-03  5.7878e-03  2.3522e-03  0:11:37 1574
   427  7.2137e-03  4.2940e-03  1.6966e-02  1.3205e+02  7.2092e-03  5.7310e-03  2.3427e-03  0:14:32 1573
   428  7.1748e-03  4.2260e-03  1.6966e-02  1.3182e+02  7.1700e-03  5.6714e-03  2.3305e-03  0:11:37 1572
   429  7.1444e-03  4.1718e-03  1.6965e-02  1.3271e+02  7.1396e-03  5.6075e-03  2.3118e-03  0:14:31 1571

  iter  continuity  x-velocity  y-velocity  z-velocity      energy           k       omega     time/iter
   430  7.1034e-03  4.1237e-03  1.6962e-02  1.3424e+02  7.0985e-03  5.5382e-03  2.2952e-03  0:11:37 1570
   431  7.0701e-03  4.0775e-03  1.6953e-02  1.3560e+02  7.0652e-03  5.4752e-03  2.2805e-03  0:14:31 1569
   432  7.0464e-03  4.0226e-03  1.6940e-02  1.3809e+02  7.0414e-03  5.4150e-03  2.2700e-03  0:11:36 1568
   433  7.0309e-03  3.9605e-03  1.6915e-02  1.3897e+02  7.0257e-03  5.3584e-03  2.2560e-03  0:14:30 1567
   434  7.0234e-03  3.8885e-03  1.6882e-02  1.4082e+02  7.0180e-03  5.3073e-03  2.2370e-03  0:11:36 1566
   435  7.0189e-03  3.8048e-03  1.6841e-02  1.4352e+02  7.0132e-03  5.2563e-03  2.2179e-03  0:14:29 1565
   436  7.0102e-03  3.7146e-03  1.6798e-02  1.4462e+02  7.0043e-03  5.2058e-03  2.2028e-03  0:11:35 1564
   437  7.0003e-03  3.6191e-03  1.6754e-02  1.4436e+02  6.9940e-03  5.1583e-03  2.1889e-03  0:14:28 1563
   438  6.9826e-03  3.5178e-03  1.6709e-02  1.4465e+02  6.9760e-03  5.1068e-03  2.1738e-03  0:16:46 1562
   439  6.9579e-03  3.4235e-03  1.6668e-02  1.4617e+02  6.9511e-03  5.0573e-03  2.1620e-03  0:13:25 1561
   440  6.8881e-03  3.3372e-03  1.6627e-02  1.4692e+02  6.8811e-03  5.0069e-03  2.1506e-03  0:15:55 1560

  iter  continuity  x-velocity  y-velocity  z-velocity      energy           k       omega     time/iter
   441  6.7779e-03  3.2603e-03  1.6588e-02  1.4702e+02  6.7707e-03  4.9569e-03  2.1387e-03  0:12:44 1559
   442  6.6285e-03  3.1931e-03  1.6553e-02  1.4877e+02  6.6212e-03  4.9156e-03  2.1301e-03  0:15:22 1558
   443  6.4458e-03  3.1359e-03  1.6523e-02  1.5148e+02  6.4384e-03  4.8801e-03  2.1197e-03  0:12:17 1557
   444  6.2394e-03  3.0867e-03  1.6493e-02  1.5269e+02  6.2320e-03  4.8477e-03  2.1061e-03  0:15:01 1556
   445  6.0171e-03  3.0451e-03  1.6469e-02  1.5226e+02  6.0099e-03  4.8171e-03  2.0939e-03  0:12:00 1555
   446  5.7861e-03  3.0108e-03  1.6447e-02  1.5192e+02  5.7792e-03  4.7904e-03  2.0834e-03  0:14:46 1554
   447  5.5566e-03  2.9838e-03  1.6428e-02  1.5154e+02  5.5501e-03  4.7644e-03  2.0750e-03  0:11:49 1553
   448  5.3329e-03  2.9626e-03  1.6411e-02  1.5199e+02  5.3270e-03  4.7404e-03  2.0666e-03  0:14:37 1552
   449  5.1207e-03  2.9465e-03  1.6397e-02  1.5196e+02  5.1155e-03  4.7177e-03  2.0551e-03  0:11:41 1551
   450  4.9179e-03  2.9354e-03  1.6384e-02  1.4971e+02  4.9136e-03  4.6966e-03  2.0440e-03  0:14:31 1550
   451  4.6830e-03  2.9284e-03  1.6375e-02  1.4813e+02  4.6796e-03  4.6774e-03  2.0345e-03  0:11:36 1549

  iter  continuity  x-velocity  y-velocity  z-velocity      energy           k       omega     time/iter
   452  4.4716e-03  2.9240e-03  1.6365e-02  1.4626e+02  4.4692e-03  4.6593e-03  2.0243e-03  0:14:26 1548
   453  4.2317e-03  2.9211e-03  1.6353e-02  1.4527e+02  4.2302e-03  4.6386e-03  2.0147e-03  0:11:32 1547
   454  4.0075e-03  2.9191e-03  1.6338e-02  1.4471e+02  4.0071e-03  4.6174e-03  2.0038e-03  0:14:23 1546
   455  3.7997e-03  2.9167e-03  1.6317e-02  1.4285e+02  3.8002e-03  4.5908e-03  1.9956e-03  0:11:30 1545
   456  3.6197e-03  2.9142e-03  1.6289e-02  1.4069e+02  3.6210e-03  4.5588e-03  1.9847e-03  0:14:20 1544
   457  3.4684e-03  2.9103e-03  1.6255e-02  1.3819e+02  3.4705e-03  4.5228e-03  1.9719e-03  0:11:28 1543
   458  3.3372e-03  2.9049e-03  1.6214e-02  1.3509e+02  3.3398e-03  4.4848e-03  1.9617e-03  0:14:18 1542
   459  3.2184e-03  2.8986e-03  1.6167e-02  1.3132e+02  3.2214e-03  4.4448e-03  1.9548e-03  0:11:26 1541
   460  3.1165e-03  2.8914e-03  1.6116e-02  1.2780e+02  3.1197e-03  4.4029e-03  1.9483e-03  0:14:17 1540
   461  3.0399e-03  2.8838e-03  1.6058e-02  1.2434e+02  3.0433e-03  4.3621e-03  1.9396e-03  0:11:25 1539
   462  2.9988e-03  2.8754e-03  1.5995e-02  1.2167e+02  3.0021e-03  4.3213e-03  1.9299e-03  0:14:15 1538

  iter  continuity  x-velocity  y-velocity  z-velocity      energy           k       omega     time/iter
   463  2.9954e-03  2.8660e-03  1.5929e-02  1.1961e+02  2.9986e-03  4.2831e-03  1.9234e-03  0:11:24 1537
   464  3.0194e-03  2.8556e-03  1.5858e-02  1.1803e+02  3.0224e-03  4.2456e-03  1.9173e-03  0:14:14 1536
   465  3.0734e-03  2.8448e-03  1.5784e-02  1.1654e+02  3.0761e-03  4.2103e-03  1.9083e-03  0:11:23 1535
   466  3.1421e-03  2.8332e-03  1.5708e-02  1.1541e+02  3.1445e-03  4.1695e-03  1.8980e-03  0:14:12 1534
   467  3.1987e-03  2.8212e-03  1.5632e-02  1.1466e+02  3.2008e-03  4.1330e-03  1.8909e-03  0:11:22 1533
   468  3.2781e-03  2.8090e-03  1.5560e-02  1.1443e+02  3.2800e-03  4.0960e-03  1.8868e-03  0:14:11 1532
   469  3.3832e-03  2.7968e-03  1.5482e-02  1.1453e+02  3.3849e-03  4.0611e-03  1.8801e-03  0:11:21 1531
   470  3.5416e-03  2.7839e-03  1.5403e-02  1.1559e+02  3.5432e-03  4.0317e-03  1.8739e-03  0:14:10 1530
   471  3.7687e-03  2.7709e-03  1.5319e-02  1.1676e+02  3.7703e-03  4.0034e-03  1.8681e-03  0:11:20 1529
   472  4.0253e-03  2.7576e-03  1.5232e-02  1.1685e+02  4.0270e-03  3.9764e-03  1.8620e-03  0:14:09 1528
   473  4.2702e-03  2.7444e-03  1.5140e-02  1.1555e+02  4.2720e-03  3.9498e-03  1.8552e-03  0:11:19 1527

  iter  continuity  x-velocity  y-velocity  z-velocity      energy           k       omega     time/iter
   474  4.4830e-03  2.7320e-03  1.5045e-02  1.1455e+02  4.4849e-03  3.9243e-03  1.8505e-03  0:14:08 1526
   475  4.7071e-03  2.7196e-03  1.4947e-02  1.1390e+02  4.7091e-03  3.9005e-03  1.8468e-03  0:11:18 1525
   476  4.8498e-03  2.7081e-03  1.4847e-02  1.1215e+02  4.8518e-03  3.8786e-03  1.8417e-03  0:14:07 1524
   477  4.9691e-03  2.6970e-03  1.4747e-02  1.1132e+02  4.9711e-03  3.8600e-03  1.8382e-03  0:11:17 1523
   478  5.0890e-03  2.6851e-03  1.4642e-02  1.0961e+02  5.0910e-03  3.8436e-03  1.8385e-03  0:14:06 1522
   479  5.1498e-03  2.6730e-03  1.4535e-02  1.0697e+02  5.1517e-03  3.8307e-03  1.8350e-03  0:11:16 1521
   480  5.1474e-03  2.6616e-03  1.4424e-02  1.0433e+02  5.1490e-03  3.8171e-03  1.8350e-03  0:14:04 1520
   481  5.0943e-03  2.6512e-03  1.4311e-02  1.0255e+02  5.0956e-03  3.7989e-03  1.8372e-03  0:11:15 1519
   482  5.0055e-03  2.6424e-03  1.4197e-02  1.0131e+02  5.0065e-03  3.7874e-03  1.8368e-03  0:14:03 1518
   483  4.8981e-03  2.6353e-03  1.4078e-02  9.9683e+01  4.8986e-03  3.7762e-03  1.8367e-03  0:11:14 1517
   484  4.7811e-03  2.6293e-03  1.3958e-02  9.8006e+01  4.7812e-03  3.7638e-03  1.8373e-03  0:14:02 1516

  iter  continuity  x-velocity  y-velocity  z-velocity      energy           k       omega     time/iter
   485  4.6585e-03  2.6242e-03  1.3834e-02  9.7038e+01  4.6581e-03  3.7520e-03  1.8382e-03  0:11:13 1515
   486  4.5330e-03  2.6202e-03  1.3711e-02  9.4919e+01  4.5322e-03  3.7420e-03  1.8396e-03  0:14:01 1514
   487  4.4007e-03  2.6172e-03  1.3590e-02  9.2017e+01  4.3994e-03  3.7328e-03  1.8389e-03  0:11:12 1513
   488  4.2560e-03  2.6149e-03  1.3466e-02  8.9131e+01  4.2541e-03  3.7245e-03  1.8392e-03  0:14:00 1512
   489  4.1013e-03  2.6136e-03  1.3344e-02  8.7417e+01  4.0988e-03  3.7153e-03  1.8399e-03  0:11:12 1511
   490  3.9495e-03  2.6133e-03  1.3227e-02  8.6606e+01  3.9466e-03  3.7017e-03  1.8411e-03  0:13:59 1510
   491  3.8006e-03  2.6140e-03  1.3113e-02  8.5458e+01  3.7971e-03  3.6869e-03  1.8410e-03  0:11:11 1509
   492  3.6368e-03  2.6153e-03  1.3002e-02  8.2976e+01  3.6328e-03  3.6704e-03  1.8435e-03  0:13:58 1508
   493  3.4673e-03  2.6169e-03  1.2900e-02  8.0797e+01  3.4627e-03  3.6531e-03  1.8435e-03  0:11:10 1507
   494  3.3065e-03  2.6189e-03  1.2805e-02  8.0322e+01  3.3014e-03  3.6329e-03  1.8421e-03  0:13:57 1506
   495  3.1400e-03  2.6207e-03  1.2714e-02  8.0748e+01  3.1344e-03  3.6168e-03  1.8431e-03  0:11:09 1505

  iter  continuity  x-velocity  y-velocity  z-velocity      energy           k       omega     time/iter
   496  2.9740e-03  2.6227e-03  1.2630e-02  8.0790e+01  2.9678e-03  3.6033e-03  1.8432e-03  0:13:56 1504
   497  2.8055e-03  2.6232e-03  1.2549e-02  8.0644e+01  2.7988e-03  3.5901e-03  1.8414e-03  0:11:08 1503
   498  2.6603e-03  2.6235e-03  1.2471e-02  8.0731e+01  2.6532e-03  3.5763e-03  1.8400e-03  0:13:54 1502
   499  2.5380e-03  2.6250e-03  1.2395e-02  8.0830e+01  2.5304e-03  3.5643e-03  1.8385e-03  0:11:07 1501
   500  2.4285e-03  2.6236e-03  1.2323e-02  8.1303e+01  2.4205e-03  3.5503e-03  1.8375e-03  0:13:53 1500
   501  2.3729e-03  2.6225e-03  1.2251e-02  8.2881e+01  2.3647e-03  3.5332e-03  1.8351e-03  0:11:06 1499
   502  2.3765e-03  2.6205e-03  1.2182e-02  8.4507e+01  2.3684e-03  3.5179e-03  1.8330e-03  0:13:52 1498
   503  2.4490e-03  2.6194e-03  1.2113e-02  8.5336e+01  2.4412e-03  3.5059e-03  1.8333e-03  0:11:05 1497
   504  2.5843e-03  2.6140e-03  1.2045e-02  8.5836e+01  2.5770e-03  3.4950e-03  1.8319e-03  0:08:52 1496
   505  2.7807e-03  2.6037e-03  1.1981e-02  8.7121e+01  2.7741e-03  3.4852e-03  1.8321e-03  0:12:04 1495
   506  3.0452e-03  2.5949e-03  1.1911e-02  8.8348e+01  3.0395e-03  3.4756e-03  1.8350e-03  0:09:39 1494

  iter  continuity  x-velocity  y-velocity  z-velocity      energy           k       omega     time/iter
   507  3.3699e-03  2.5852e-03  1.1840e-02  8.7982e+01  3.3651e-03  3.4666e-03  1.8391e-03  0:12:41 1493
   508  3.7472e-03  2.5723e-03  1.1779e-02  8.6882e+01  3.7433e-03  3.4592e-03  1.8438e-03  0:10:09 1492
   509  4.1772e-03  2.5605e-03  1.1725e-02  8.6375e+01  4.1742e-03  3.4531e-03  1.8478e-03  0:13:05 1491
   510  4.6405e-03  2.5494e-03  1.1684e-02  8.6425e+01  4.6384e-03  3.4466e-03  1.8502e-03  0:10:28 1490
   511  5.0947e-03  2.5394e-03  1.1654e-02  8.5092e+01  5.0933e-03  3.4375e-03  1.8539e-03  0:13:19 1489
   512  5.6080e-03  2.5308e-03  1.1634e-02  8.2647e+01  5.6074e-03  3.4290e-03  1.8609e-03  0:10:39 1488
   513  6.1878e-03  2.5236e-03  1.1626e-02  8.0459e+01  6.1879e-03  3.4225e-03  1.8658e-03  0:13:28 1487
   514  6.8491e-03  2.5178e-03  1.1631e-02  7.8932e+01  6.8501e-03  3.4162e-03  1.8723e-03  0:10:46 1486
   515  7.5495e-03  2.5145e-03  1.1650e-02  7.6854e+01  7.5513e-03  3.4122e-03  1.8801e-03  0:13:34 1485
   516  8.0453e-03  2.5123e-03  1.1675e-02  7.5247e+01  8.0473e-03  3.4117e-03  1.8912e-03  0:10:50 1484
   517  8.5428e-03  2.5115e-03  1.1673e-02  7.4014e+01  8.5449e-03  3.4105e-03  1.9026e-03  0:13:37 1483

  iter  continuity  x-velocity  y-velocity  z-velocity      energy           k       omega     time/iter
   518  9.1044e-03  2.5092e-03  1.1682e-02  7.2746e+01  9.1066e-03  3.4109e-03  1.9152e-03  0:10:53 1482
   519  9.6086e-03  2.5058e-03  1.1696e-02  7.2585e+01  9.6109e-03  3.4114e-03  1.9248e-03  0:13:38 1481
   520  1.0302e-02  2.5033e-03  1.1716e-02  7.3560e+01  1.0304e-02  3.4086e-03  1.9336e-03  0:10:54 1480
   521  1.1051e-02  2.5012e-03  1.1739e-02  7.4189e+01  1.1055e-02  3.4069e-03  1.9420e-03  0:13:39 1479
   522  1.1752e-02  2.4978e-03  1.1770e-02  7.4196e+01  1.1755e-02  3.4049e-03  1.9510e-03  0:10:55 1478
   523  1.2021e-02  2.4937e-03  1.1809e-02  7.4242e+01  1.2024e-02  3.4012e-03  1.9579e-03  0:08:43 1477
   524  1.1921e-02  2.4894e-03  1.1855e-02  7.4607e+01  1.1923e-02  3.3989e-03  1.9629e-03  0:11:54 1476
   525  1.1678e-02  2.4859e-03  1.1903e-02  7.4113e+01  1.1677e-02  3.3978e-03  1.9657e-03  0:09:30 1475
   526  1.1354e-02  2.4825e-03  1.1950e-02  7.3465e+01  1.1352e-02  3.3964e-03  1.9730e-03  0:12:31 1474
   527  1.1057e-02  2.4791e-03  1.1990e-02  7.4062e+01  1.1053e-02  3.3972e-03  1.9744e-03  0:10:00 1473
   528  1.0809e-02  2.4752e-03  1.2022e-02  7.4379e+01  1.0803e-02  3.3976e-03  1.9810e-03  0:12:54 1472

  iter  continuity  x-velocity  y-velocity  z-velocity      energy           k       omega     time/iter
   529  1.0589e-02  2.4710e-03  1.2048e-02  7.3829e+01  1.0582e-02  3.3984e-03  1.9849e-03  0:10:19 1471
   530  1.0399e-02  2.4662e-03  1.2068e-02  7.3797e+01  1.0390e-02  3.4006e-03  1.9900e-03  0:13:09 1470
   531  1.0189e-02  2.4617e-03  1.2082e-02  7.4368e+01  1.0179e-02  3.4024e-03  1.9935e-03  0:10:31 1469
   532  1.0039e-02  2.4561e-03  1.2090e-02  7.4259e+01  1.0027e-02  3.4037e-03  1.9979e-03  0:13:18 1468
   533  9.9419e-03  2.4499e-03  1.2092e-02  7.3970e+01  9.9289e-03  3.4044e-03  1.9985e-03  0:10:38 1467
   534  9.7935e-03  2.4437e-03  1.2095e-02  7.3427e+01  9.7792e-03  3.4057e-03  1.9997e-03  0:13:23 1466
   535  9.6082e-03  2.4364e-03  1.2096e-02  7.2155e+01  9.5924e-03  3.4104e-03  2.0008e-03  0:10:42 1465
   536  9.3933e-03  2.4285e-03  1.2092e-02  7.1061e+01  9.3763e-03  3.4179e-03  2.0039e-03  0:13:26 1464
   537  9.2005e-03  2.4195e-03  1.2087e-02  7.0553e+01  9.1824e-03  3.4258e-03  2.0063e-03  0:10:44 1463
   538  9.0607e-03  2.4108e-03  1.2084e-02  6.9116e+01  9.0417e-03  3.4339e-03  2.0065e-03  0:13:28 1462
   539  8.9828e-03  2.4030e-03  1.2087e-02  6.7245e+01  8.9631e-03  3.4411e-03  2.0080e-03  0:10:46 1461

  iter  continuity  x-velocity  y-velocity  z-velocity      energy           k       omega     time/iter
   540  8.9624e-03  2.3960e-03  1.2097e-02  6.6220e+01  8.9423e-03  3.4482e-03  2.0122e-03  0:13:28 1460
   541  8.9850e-03  2.3894e-03  1.2115e-02  6.5059e+01  8.9647e-03  3.4535e-03  2.0153e-03  0:10:46 1459
   542  9.0349e-03  2.3840e-03  1.2141e-02  6.4075e+01  9.0146e-03  3.4572e-03  2.0205e-03  0:13:28 1458
   543  9.0980e-03  2.3801e-03  1.2172e-02  6.3443e+01  9.0778e-03  3.4620e-03  2.0260e-03  0:10:46 1457
   544  9.1690e-03  2.3778e-03  1.2209e-02  6.3521e+01  9.1490e-03  3.4677e-03  2.0316e-03  0:13:28 1456
   545  9.2337e-03  2.3773e-03  1.2247e-02  6.3102e+01  9.2138e-03  3.4709e-03  2.0359e-03  0:10:46 1455
   546  9.2806e-03  2.3788e-03  1.2287e-02  6.2382e+01  9.2608e-03  3.4753e-03  2.0401e-03  0:13:27 1454
   547  9.3172e-03  2.3819e-03  1.2326e-02  6.2488e+01  9.2974e-03  3.4816e-03  2.0439e-03  0:10:45 1453
   548  9.3312e-03  2.3863e-03  1.2365e-02  6.1949e+01  9.3112e-03  3.4868e-03  2.0452e-03  0:08:36 1452
   549  9.3158e-03  2.3915e-03  1.2402e-02  6.1304e+01  9.2957e-03  3.4918e-03  2.0497e-03  0:11:43 1451
   550  9.2772e-03  2.3970e-03  1.2438e-02  6.0471e+01  9.2568e-03  3.4965e-03  2.0543e-03  0:09:22 1450

  iter  continuity  x-velocity  y-velocity  z-velocity      energy           k       omega     time/iter
   551  9.2169e-03  2.4009e-03  1.2474e-02  5.9805e+01  9.1963e-03  3.5001e-03  2.0566e-03  0:12:19 1449
   552  9.1446e-03  2.4048e-03  1.2508e-02  5.9542e+01  9.1235e-03  3.5032e-03  2.0590e-03  0:09:51 1448
   553  9.0558e-03  2.4067e-03  1.2538e-02  5.8539e+01  9.0344e-03  3.5055e-03  2.0619e-03  0:12:42 1447
   554  8.9541e-03  2.4070e-03  1.2566e-02  5.7958e+01  8.9324e-03  3.5079e-03  2.0609e-03  0:10:09 1446
   555  8.8394e-03  2.4052e-03  1.2591e-02  5.7183e+01  8.8173e-03  3.5101e-03  2.0621e-03  0:12:56 1445
   556  8.7297e-03  2.4002e-03  1.2613e-02  5.6335e+01  8.7074e-03  3.5150e-03  2.0641e-03  0:10:20 1444
   557  8.6253e-03  2.3954e-03  1.2635e-02  5.5817e+01  8.6029e-03  3.5206e-03  2.0667e-03  0:13:04 1443
   558  8.5310e-03  2.3928e-03  1.2659e-02  5.4142e+01  8.5086e-03  3.5245e-03  2.0667e-03  0:10:27 1442
   559  8.4354e-03  2.3916e-03  1.2683e-02  5.3035e+01  8.4130e-03  3.5293e-03  2.0632e-03  0:13:10 1441
   560  8.3397e-03  2.3921e-03  1.2710e-02  5.1989e+01  8.3175e-03  3.5332e-03  2.0656e-03  0:10:31 1440
   561  8.2452e-03  2.3934e-03  1.2740e-02  5.0647e+01  8.2232e-03  3.5385e-03  2.0647e-03  0:13:12 1439

  iter  continuity  x-velocity  y-velocity  z-velocity      energy           k       omega     time/iter
   562  8.1606e-03  2.3961e-03  1.2770e-02  4.9837e+01  8.1388e-03  3.5440e-03  2.0611e-03  0:10:33 1438
   563  8.0775e-03  2.3999e-03  1.2804e-02  4.8908e+01  8.0559e-03  3.5500e-03  2.0581e-03  0:13:14 1437
   564  7.9959e-03  2.4044e-03  1.2838e-02  4.7867e+01  7.9746e-03  3.5571e-03  2.0556e-03  0:10:35 1436
   565  7.9105e-03  2.4094e-03  1.2870e-02  4.7108e+01  7.8894e-03  3.5646e-03  2.0527e-03  0:13:14 1435
   566  7.8220e-03  2.4146e-03  1.2896e-02  4.6986e+01  7.8011e-03  3.5723e-03  2.0503e-03  0:10:35 1434
   567  7.7273e-03  2.4200e-03  1.2916e-02  4.6431e+01  7.7067e-03  3.5801e-03  2.0514e-03  0:13:14 1433
   568  7.6248e-03  2.4255e-03  1.2930e-02  4.6219e+01  7.6043e-03  3.5880e-03  2.0488e-03  0:10:35 1432
   569  7.5253e-03  2.4313e-03  1.2940e-02  4.6231e+01  7.5049e-03  3.5955e-03  2.0483e-03  0:13:14 1431
   570  7.4242e-03  2.4361e-03  1.2946e-02  4.5908e+01  7.4039e-03  3.6028e-03  2.0507e-03  0:10:35 1430
   571  7.3245e-03  2.4399e-03  1.2950e-02  4.5621e+01  7.3042e-03  3.6105e-03  2.0507e-03  0:13:13 1429
   572  7.2173e-03  2.4420e-03  1.2953e-02  4.5181e+01  7.1971e-03  3.6203e-03  2.0528e-03  0:10:34 1428

  iter  continuity  x-velocity  y-velocity  z-velocity      energy           k       omega     time/iter
   573  7.0981e-03  2.4425e-03  1.2957e-02  4.4419e+01  7.0781e-03  3.6314e-03  2.0565e-03  0:08:27 1427
   574  6.9694e-03  2.4408e-03  1.2964e-02  4.3500e+01  6.9495e-03  3.6447e-03  2.0596e-03  0:11:30 1426
   575  6.8390e-03  2.4377e-03  1.2965e-02  4.2777e+01  6.8194e-03  3.6587e-03  2.0666e-03  0:09:12 1425
   576  6.7070e-03  2.4338e-03  1.2964e-02  4.1755e+01  6.6876e-03  3.6751e-03  2.0745e-03  0:12:06 1424
   577  6.5716e-03  2.4293e-03  1.2963e-02  4.0500e+01  6.5525e-03  3.6934e-03  2.0814e-03  0:09:40 1423
   578  6.4412e-03  2.4246e-03  1.2963e-02  3.9532e+01  6.4224e-03  3.7127e-03  2.0899e-03  0:12:28 1422
   579  6.3060e-03  2.4196e-03  1.2965e-02  3.8446e+01  6.2874e-03  3.7330e-03  2.0948e-03  0:09:58 1421
   580  6.1698e-03  2.4144e-03  1.2967e-02  3.7367e+01  6.1515e-03  3.7561e-03  2.0988e-03  0:12:42 1420
   581  6.0340e-03  2.4083e-03  1.2971e-02  3.6411e+01  6.0162e-03  3.7806e-03  2.1039e-03  0:10:09 1419
   582  5.9046e-03  2.4005e-03  1.2975e-02  3.6213e+01  5.8871e-03  3.8070e-03  2.1081e-03  0:12:51 1418
   583  5.7764e-03  2.3920e-03  1.2982e-02  3.6023e+01  5.7592e-03  3.8345e-03  2.1110e-03  0:10:16 1417

  iter  continuity  x-velocity  y-velocity  z-velocity      energy           k       omega     time/iter
   584  5.6470e-03  2.3834e-03  1.2988e-02  3.6115e+01  5.6301e-03  3.8634e-03  2.1144e-03  0:12:56 1416
   585  5.5199e-03  2.3752e-03  1.2992e-02  3.6051e+01  5.5034e-03  3.8922e-03  2.1152e-03  0:10:20 1415
   586  5.3892e-03  2.3669e-03  1.2993e-02  3.5937e+01  5.3730e-03  3.9218e-03  2.1203e-03  0:12:59 1414
   587  5.2576e-03  2.3574e-03  1.2990e-02  3.4667e+01  5.2417e-03  3.9516e-03  2.1204e-03  0:10:22 1413
   588  5.1365e-03  2.3459e-03  1.2984e-02  3.3658e+01  5.1208e-03  3.9798e-03  2.1208e-03  0:13:00 1412
   589  5.0267e-03  2.3313e-03  1.2974e-02  3.3074e+01  5.0114e-03  4.0074e-03  2.1198e-03  0:10:24 1411
   590  4.9320e-03  2.3149e-03  1.2957e-02  3.2689e+01  4.9168e-03  4.0345e-03  2.1171e-03  0:13:01 1410
   591  4.8405e-03  2.2971e-03  1.2936e-02  3.2883e+01  4.8256e-03  4.0599e-03  2.1146e-03  0:10:24 1409
   592  4.7482e-03  2.2795e-03  1.2910e-02  3.2632e+01  4.7335e-03  4.0853e-03  2.1113e-03  0:13:00 1408
   593  4.6493e-03  2.2626e-03  1.2883e-02  3.1954e+01  4.6348e-03  4.1097e-03  2.1059e-03  0:10:24 1407
   594  4.5394e-03  2.2466e-03  1.2854e-02  3.0948e+01  4.5250e-03  4.1326e-03  2.1015e-03  0:08:19 1406

  iter  continuity  x-velocity  y-velocity  z-velocity      energy           k       omega     time/iter
   595  4.4206e-03  2.2320e-03  1.2823e-02  2.9827e+01  4.4064e-03  4.1530e-03  2.0973e-03  0:11:20 1405
   596  4.2908e-03  2.2179e-03  1.2790e-02  2.9042e+01  4.2769e-03  4.1714e-03  2.0942e-03  0:13:44 1404
   597  4.1535e-03  2.2058e-03  1.2763e-02  2.8820e+01  4.1399e-03  4.1901e-03  2.0893e-03  0:10:59 1403
   598  4.0131e-03  2.1968e-03  1.2740e-02  2.8850e+01  3.9998e-03  4.2086e-03  2.0831e-03  0:08:47 1402
   599  3.8664e-03  2.1896e-03  1.2718e-02  2.8652e+01  3.8536e-03  4.2252e-03  2.0763e-03  0:11:41 1401
   600  3.7193e-03  2.1842e-03  1.2701e-02  2.8371e+01  3.7069e-03  4.2394e-03  2.0672e-03  0:09:21 1400
   601  3.5738e-03  2.1797e-03  1.2690e-02  2.7693e+01  3.5618e-03  4.2516e-03  2.0589e-03  0:12:08 1399
   602  3.4292e-03  2.1748e-03  1.2684e-02  2.6763e+01  3.4175e-03  4.2660e-03  2.0509e-03  0:09:42 1398
   603  3.2877e-03  2.1691e-03  1.2685e-02  2.5880e+01  3.2762e-03  4.2777e-03  2.0482e-03  0:12:25 1397
   604  3.1503e-03  2.1638e-03  1.2691e-02  2.5223e+01  3.1390e-03  4.2858e-03  2.0445e-03  0:09:55 1396
   605  3.0210e-03  2.1591e-03  1.2699e-02  2.4705e+01  3.0100e-03  4.2921e-03  2.0387e-03  0:12:35 1395

  iter  continuity  x-velocity  y-velocity  z-velocity      energy           k       omega     time/iter
   606  2.8994e-03  2.1553e-03  1.2707e-02  2.4327e+01  2.8886e-03  4.3029e-03  2.0342e-03  0:10:03 1394
   607  2.7813e-03  2.1521e-03  1.2713e-02  2.4262e+01  2.7707e-03  4.3172e-03  2.0301e-03  0:12:41 1393
   608  2.6674e-03  2.1495e-03  1.2717e-02  2.4212e+01  2.6569e-03  4.3313e-03  2.0255e-03  0:10:08 1392
   609  2.5583e-03  2.1473e-03  1.2717e-02  2.4092e+01  2.5479e-03  4.3458e-03  2.0226e-03  0:12:45 1391
   610  2.4561e-03  2.1451e-03  1.2711e-02  2.4026e+01  2.4459e-03  4.3600e-03  2.0186e-03  0:10:11 1390
   611  2.3607e-03  2.1424e-03  1.2700e-02  2.4084e+01  2.3506e-03  4.3742e-03  2.0175e-03  0:12:46 1389
   612  2.2812e-03  2.1390e-03  1.2683e-02  2.3835e+01  2.2711e-03  4.3880e-03  2.0181e-03  0:10:13 1388
   613  2.2146e-03  2.1339e-03  1.2659e-02  2.2951e+01  2.2045e-03  4.3989e-03  2.0164e-03  0:12:47 1387
   614  2.1599e-03  2.1285e-03  1.2627e-02  2.2514e+01  2.1500e-03  4.4092e-03  2.0175e-03  0:10:13 1386
   615  2.1200e-03  2.1226e-03  1.2588e-02  2.2233e+01  2.1101e-03  4.4195e-03  2.0187e-03  0:12:47 1385
   616  2.0973e-03  2.1161e-03  1.2544e-02  2.1977e+01  2.0875e-03  4.4306e-03  2.0213e-03  0:10:13 1384

  iter  continuity  x-velocity  y-velocity  z-velocity      energy           k       omega     time/iter
   617  2.0596e-03  2.1086e-03  1.2495e-02  2.1761e+01  2.0499e-03  4.4432e-03  2.0247e-03  0:12:47 1383
   618  2.0433e-03  2.1007e-03  1.2442e-02  2.1554e+01  2.0337e-03  4.4536e-03  2.0298e-03  0:10:13 1382
   619  2.0183e-03  2.0902e-03  1.2386e-02  2.1329e+01  2.0087e-03  4.4651e-03  2.0339e-03  0:12:46 1381
   620  1.9768e-03  2.0792e-03  1.2329e-02  2.1068e+01  1.9671e-03  4.4772e-03  2.0355e-03  0:10:13 1380
   621  1.9604e-03  2.0698e-03  1.2270e-02  2.0750e+01  1.9507e-03  4.4900e-03  2.0407e-03  0:12:46 1379
   622  1.9687e-03  2.0612e-03  1.2208e-02  2.0306e+01  1.9591e-03  4.5023e-03  2.0468e-03  0:10:12 1378
   623  1.9946e-03  2.0516e-03  1.2146e-02  1.9901e+01  1.9849e-03  4.5194e-03  2.0545e-03  0:12:45 1377
   624  2.0330e-03  2.0413e-03  1.2081e-02  1.9530e+01  2.0233e-03  4.5374e-03  2.0613e-03  0:10:11 1376
   625  2.0785e-03  2.0299e-03  1.2013e-02  1.9166e+01  2.0688e-03  4.5579e-03  2.0693e-03  0:12:44 1375
   626  2.1299e-03  2.0175e-03  1.1945e-02  1.8772e+01  2.1201e-03  4.5752e-03  2.0785e-03  0:10:10 1374
[...]
  1838  2.7118e-03  2.3175e-03  1.3213e-02  2.8517e+01  2.7012e-03  2.8934e-03  1.7118e-03  0:01:02  162
  1839  2.6815e-03  2.3233e-03  1.3191e-02  3.0636e+01  2.6710e-03  2.9178e-03  1.7007e-03  0:00:50  161
  1840  2.6515e-03  2.3292e-03  1.3168e-02  3.2769e+01  2.6411e-03  2.9414e-03  1.6928e-03  0:00:40  160
  1841  2.6235e-03  2.3348e-03  1.3143e-02  3.4899e+01  2.6131e-03  2.9635e-03  1.6840e-03  0:00:31  159
  1842  2.5983e-03  2.3399e-03  1.3116e-02  3.7018e+01  2.5879e-03  2.9853e-03  1.6761e-03  0:00:57  158
  1843  2.5769e-03  2.3447e-03  1.3089e-02  3.9125e+01  2.5665e-03  3.0055e-03  1.6689e-03  0:00:45  157
  1844  2.5533e-03  2.3488e-03  1.3061e-02  4.1196e+01  2.5429e-03  3.0241e-03  1.6652e-03  0:00:36  156
  1845  2.5271e-03  2.3528e-03  1.3032e-02  4.3183e+01  2.5167e-03  3.0410e-03  1.6628e-03  0:00:59  155
  1846  2.5001e-03  2.3581e-03  1.3005e-02  4.5087e+01  2.4895e-03  3.0595e-03  1.6622e-03  0:00:47  154
  1847  2.4719e-03  2.3655e-03  1.2977e-02  4.6857e+01  2.4612e-03  3.0772e-03  1.6629e-03  0:00:38  153
  1848  2.4438e-03  2.3740e-03  1.2949e-02  4.8400e+01  2.4331e-03  3.0932e-03  1.6643e-03  0:00:30  152

  iter  continuity  x-velocity  y-velocity  z-velocity      energy           k       omega     time/iter
  1849  2.4172e-03  2.3837e-03  1.2917e-02  4.9653e+01  2.4065e-03  3.1073e-03  1.6659e-03  0:00:54  151
  1850  2.3929e-03  2.3939e-03  1.2883e-02  5.0587e+01  2.3822e-03  3.1203e-03  1.6698e-03  0:00:43  150
  1851  2.3718e-03  2.4044e-03  1.2845e-02  5.1199e+01  2.3611e-03  3.1320e-03  1.6763e-03  0:00:34  149
  1852  2.3551e-03  2.4158e-03  1.2802e-02  5.1493e+01  2.3445e-03  3.1430e-03  1.6843e-03  0:00:57  148
  1853  2.3372e-03  2.4279e-03  1.2754e-02  5.1479e+01  2.3266e-03  3.1536e-03  1.6925e-03  0:00:45  147
  1854  2.3183e-03  2.4407e-03  1.2700e-02  5.1107e+01  2.3078e-03  3.1628e-03  1.7009e-03  0:00:36  146
  1855  2.3076e-03  2.4554e-03  1.2637e-02  5.0415e+01  2.2972e-03  3.1690e-03  1.7117e-03  0:00:57  145
  1856  2.3008e-03  2.4715e-03  1.2566e-02  4.9481e+01  2.2905e-03  3.1745e-03  1.7228e-03  0:00:46  144
  1857  2.2667e-03  2.4876e-03  1.2487e-02  4.8279e+01  2.2564e-03  3.1793e-03  1.7341e-03  0:00:36  143
  1858  2.2438e-03  2.5048e-03  1.2399e-02  4.6820e+01  2.2335e-03  3.1847e-03  1.7438e-03  0:00:57  142
  1859  2.2328e-03  2.5238e-03  1.2305e-02  4.4988e+01  2.2225e-03  3.1886e-03  1.7573e-03  0:00:45  141

  iter  continuity  x-velocity  y-velocity  z-velocity      energy           k       omega     time/iter
  1860  2.2306e-03  2.5442e-03  1.2206e-02  4.2860e+01  2.2203e-03  3.1939e-03  1.7660e-03  0:00:36  140
  1861  2.2337e-03  2.5647e-03  1.2107e-02  4.0521e+01  2.2234e-03  3.1987e-03  1.7773e-03  0:00:29  139
  1862  2.2395e-03  2.5850e-03  1.2009e-02  3.8006e+01  2.2292e-03  3.2029e-03  1.7896e-03  0:00:50  138
  1863  2.2456e-03  2.6045e-03  1.1914e-02  3.5313e+01  2.2353e-03  3.2093e-03  1.7977e-03  0:00:40  137
  1864  2.2517e-03  2.6234e-03  1.1824e-02  3.2489e+01  2.2414e-03  3.2168e-03  1.8063e-03  0:00:59  136
  1865  2.2568e-03  2.6419e-03  1.1738e-02  2.9589e+01  2.2465e-03  3.2232e-03  1.8223e-03  0:00:47  135
  1866  2.2588e-03  2.6601e-03  1.1656e-02  2.6672e+01  2.2485e-03  3.2319e-03  1.8400e-03  0:00:37  134
  1867  2.2626e-03  2.6771e-03  1.1578e-02  2.3849e+01  2.2523e-03  3.2414e-03  1.8476e-03  0:00:30  133
  1868  2.2663e-03  2.6931e-03  1.1501e-02  2.1104e+01  2.2560e-03  3.2503e-03  1.8606e-03  0:00:50  132
  1869  2.2702e-03  2.7074e-03  1.1421e-02  1.8598e+01  2.2600e-03  3.2595e-03  1.8721e-03  0:00:40  131
  1870  2.2740e-03  2.7204e-03  1.1338e-02  1.6330e+01  2.2637e-03  3.2701e-03  1.8831e-03  0:00:31  130

  iter  continuity  x-velocity  y-velocity  z-velocity      energy           k       omega     time/iter
  1871  2.2768e-03  2.7319e-03  1.1256e-02  1.4333e+01  2.2665e-03  3.2818e-03  1.8935e-03  0:00:51  129
  1872  2.2791e-03  2.7420e-03  1.1175e-02  1.2660e+01  2.2688e-03  3.2872e-03  1.9056e-03  0:00:40  128
  1873  2.2806e-03  2.7508e-03  1.1095e-02  1.1371e+01  2.2702e-03  3.2967e-03  1.9151e-03  0:00:32  127
  1874  2.2798e-03  2.7582e-03  1.1022e-02  1.0532e+01  2.2693e-03  3.3130e-03  1.9225e-03  0:00:25  126
  1875  2.2784e-03  2.7649e-03  1.0953e-02  1.0158e+01  2.2678e-03  3.3326e-03  1.9306e-03  0:00:45  125
  1876  2.2774e-03  2.7700e-03  1.0888e-02  1.0159e+01  2.2666e-03  3.3511e-03  1.9359e-03  0:00:36  124
  1877  2.2772e-03  2.7742e-03  1.0826e-02  1.0489e+01  2.2662e-03  3.3694e-03  1.9389e-03  0:00:28  123
  1878  2.2773e-03  2.7771e-03  1.0769e-02  1.1016e+01  2.2663e-03  3.3868e-03  1.9438e-03  0:00:47  122
  1879  2.2790e-03  2.7795e-03  1.0720e-02  1.1646e+01  2.2678e-03  3.4045e-03  1.9482e-03  0:00:37  121
  1880  2.2823e-03  2.7815e-03  1.0680e-02  1.2302e+01  2.2710e-03  3.4248e-03  1.9536e-03  0:00:30  120
  1881  2.2889e-03  2.7834e-03  1.0646e-02  1.2916e+01  2.2775e-03  3.4495e-03  1.9586e-03  0:00:23  119

  iter  continuity  x-velocity  y-velocity  z-velocity      energy           k       omega     time/iter
  1882  2.3002e-03  2.7858e-03  1.0618e-02  1.3454e+01  2.2887e-03  3.4734e-03  1.9602e-03  0:00:42  118
  1883  2.3160e-03  2.7897e-03  1.0593e-02  1.3883e+01  2.3045e-03  3.4963e-03  1.9618e-03  0:00:33  117
  1884  2.3368e-03  2.7953e-03  1.0569e-02  1.4225e+01  2.3252e-03  3.5187e-03  1.9671e-03  0:00:27  116
  1885  2.3652e-03  2.8019e-03  1.0550e-02  1.4505e+01  2.3536e-03  3.5420e-03  1.9702e-03  0:00:21  115
  1886  2.4052e-03  2.8091e-03  1.0536e-02  1.4723e+01  2.3935e-03  3.5631e-03  1.9732e-03  0:00:40  114
  1887  2.4575e-03  2.8161e-03  1.0528e-02  1.4893e+01  2.4458e-03  3.5836e-03  1.9740e-03  0:00:31  113
  1888  2.5223e-03  2.8240e-03  1.0527e-02  1.5054e+01  2.5107e-03  3.6083e-03  1.9801e-03  0:00:25  112
  1889  2.6008e-03  2.8314e-03  1.0528e-02  1.5218e+01  2.5892e-03  3.6335e-03  1.9862e-03  0:00:42  111
  1890  2.6952e-03  2.8378e-03  1.0532e-02  1.5408e+01  2.6837e-03  3.6573e-03  1.9907e-03  0:00:33  110
  1891  2.8067e-03  2.8427e-03  1.0542e-02  1.5655e+01  2.7952e-03  3.6788e-03  1.9962e-03  0:00:26  109
  1892  2.9272e-03  2.8471e-03  1.0557e-02  1.5895e+01  2.9158e-03  3.6996e-03  2.0006e-03  0:00:21  108

  iter  continuity  x-velocity  y-velocity  z-velocity      energy           k       omega     time/iter
  1893  3.0552e-03  2.8518e-03  1.0570e-02  1.6015e+01  3.0438e-03  3.7191e-03  2.0004e-03  0:00:38  107
  1894  3.1915e-03  2.8565e-03  1.0577e-02  1.5973e+01  3.1802e-03  3.7370e-03  2.0026e-03  0:00:30  106
  1895  3.3361e-03  2.8606e-03  1.0581e-02  1.5796e+01  3.3247e-03  3.7578e-03  2.0046e-03  0:00:24  105
  1896  3.4877e-03  2.8647e-03  1.0585e-02  1.5525e+01  3.4764e-03  3.7776e-03  2.0061e-03  0:00:40  104
  1897  3.6475e-03  2.8695e-03  1.0582e-02  1.5191e+01  3.6362e-03  3.7976e-03  2.0033e-03  0:00:31  103
  1898  3.8071e-03  2.8739e-03  1.0573e-02  1.4835e+01  3.7958e-03  3.8196e-03  2.0043e-03  0:00:25  102
  1899  3.9473e-03  2.8779e-03  1.0561e-02  1.4593e+01  3.9358e-03  3.8390e-03  2.0076e-03  0:00:20  101
  1900  4.1064e-03  2.8814e-03  1.0545e-02  1.4390e+01  4.0949e-03  3.8584e-03  2.0076e-03  0:00:36  100
  1901  4.2780e-03  2.8832e-03  1.0525e-02  1.4142e+01  4.2664e-03  3.8800e-03  2.0028e-03  0:00:28   99
  1902  4.4499e-03  2.8834e-03  1.0500e-02  1.3830e+01  4.4383e-03  3.9018e-03  2.0028e-03  0:00:22   98
  1903  4.6338e-03  2.8821e-03  1.0474e-02  1.3512e+01  4.6223e-03  3.9246e-03  2.0042e-03  0:00:37   97

  iter  continuity  x-velocity  y-velocity  z-velocity      energy           k       omega     time/iter
  1904  4.8363e-03  2.8789e-03  1.0446e-02  1.3429e+01  4.8249e-03  3.9466e-03  2.0070e-03  0:00:29   96
  1905  5.0496e-03  2.8732e-03  1.0416e-02  1.3694e+01  5.0384e-03  3.9706e-03  2.0114e-03  0:00:23   95
  1906  5.2605e-03  2.8657e-03  1.0383e-02  1.4165e+01  5.2496e-03  3.9865e-03  2.0136e-03  0:00:18   94
  1907  5.4517e-03  2.8565e-03  1.0348e-02  1.4921e+01  5.4410e-03  4.0034e-03  2.0118e-03  0:00:33   93
  1908  5.6260e-03  2.8462e-03  1.0313e-02  1.5890e+01  5.6156e-03  4.0215e-03  2.0150e-03  0:00:26   92
  1909  5.8005e-03  2.8348e-03  1.0278e-02  1.6514e+01  5.7904e-03  4.0408e-03  2.0161e-03  0:00:21   91
  1910  6.0156e-03  2.8231e-03  1.0247e-02  1.7036e+01  6.0059e-03  4.0597e-03  2.0216e-03  0:00:16   90
  1911  6.2486e-03  2.8109e-03  1.0222e-02  1.7706e+01  6.2394e-03  4.0781e-03  2.0249e-03  0:00:31   89
  1912  6.5798e-03  2.7982e-03  1.0203e-02  1.8599e+01  6.5714e-03  4.0981e-03  2.0266e-03  0:00:24   88
  1913  6.8474e-03  2.7850e-03  1.0186e-02  1.9365e+01  6.8397e-03  4.1174e-03  2.0300e-03  0:00:19   87
  1914  7.0579e-03  2.7720e-03  1.0170e-02  1.9789e+01  7.0508e-03  4.1381e-03  2.0281e-03  0:00:32   86

  iter  continuity  x-velocity  y-velocity  z-velocity      energy           k       omega     time/iter
  1915  7.2122e-03  2.7587e-03  1.0149e-02  2.0184e+01  7.2056e-03  4.1582e-03  2.0268e-03  0:00:26   85
  1916  7.3051e-03  2.7447e-03  1.0125e-02  2.0349e+01  7.2989e-03  4.1777e-03  2.0277e-03  0:00:20   84
  1917  7.3348e-03  2.7316e-03  1.0106e-02  2.0403e+01  7.3289e-03  4.1980e-03  2.0240e-03  0:00:16   83
  1918  7.3148e-03  2.7191e-03  1.0079e-02  2.0507e+01  7.3091e-03  4.2179e-03  2.0206e-03  0:00:29   82
  1919  7.2490e-03  2.7070e-03  1.0046e-02  2.0733e+01  7.2434e-03  4.2380e-03  2.0204e-03  0:00:23   81
  1920  7.1429e-03  2.6949e-03  1.0007e-02  2.1045e+01  7.1374e-03  4.2592e-03  2.0177e-03  0:00:18   80
  1921  7.0062e-03  2.6827e-03  9.9697e-03  2.1455e+01  7.0007e-03  4.2842e-03  2.0176e-03  0:00:14   79
  1922  6.8523e-03  2.6706e-03  9.9372e-03  2.1952e+01  6.8467e-03  4.3094e-03  2.0199e-03  0:00:27   78
  1923  6.6828e-03  2.6586e-03  9.9167e-03  2.2503e+01  6.6771e-03  4.3360e-03  2.0258e-03  0:00:21   77
  1924  6.5078e-03  2.6472e-03  9.8981e-03  2.3108e+01  6.5020e-03  4.3645e-03  2.0321e-03  0:00:17   76
  1925  6.3294e-03  2.6355e-03  9.8754e-03  2.3756e+01  6.3235e-03  4.3963e-03  2.0378e-03  0:00:28   75

  iter  continuity  x-velocity  y-velocity  z-velocity      energy           k       omega     time/iter
  1926  6.1527e-03  2.6243e-03  9.8552e-03  2.4431e+01  6.1466e-03  4.4303e-03  2.0439e-03  0:00:22   74
  1927  5.9846e-03  2.6133e-03  9.8319e-03  2.5142e+01  5.9784e-03  4.4644e-03  2.0522e-03  0:00:18   73
  1928  5.8214e-03  2.6040e-03  9.8042e-03  2.5897e+01  5.8151e-03  4.5002e-03  2.0607e-03  0:00:14   72
  1929  5.6682e-03  2.5937e-03  9.7699e-03  2.6681e+01  5.6618e-03  4.5323e-03  2.0720e-03  0:00:25   71
  1930  5.5198e-03  2.5815e-03  9.7338e-03  2.7491e+01  5.5134e-03  4.5603e-03  2.0815e-03  0:00:20   70
  1931  5.3829e-03  2.5697e-03  9.7041e-03  2.8270e+01  5.3764e-03  4.5871e-03  2.0893e-03  0:00:16   69
  1932  5.2493e-03  2.5580e-03  9.6819e-03  2.8975e+01  5.2428e-03  4.6094e-03  2.0984e-03  0:00:12   68
  1933  5.1154e-03  2.5471e-03  9.6671e-03  2.9570e+01  5.1089e-03  4.6312e-03  2.1034e-03  0:00:23   67
  1934  4.9813e-03  2.5404e-03  9.6533e-03  3.0028e+01  4.9747e-03  4.6532e-03  2.1057e-03  0:00:18   66
  1935  4.8472e-03  2.5369e-03  9.6340e-03  3.0334e+01  4.8406e-03  4.6757e-03  2.1106e-03  0:00:14   65
  1936  4.7155e-03  2.5351e-03  9.6093e-03  3.0504e+01  4.7088e-03  4.6945e-03  2.1157e-03  0:00:11   64

  iter  continuity  x-velocity  y-velocity  z-velocity      energy           k       omega     time/iter
  1937  4.5817e-03  2.5336e-03  9.5803e-03  3.0552e+01  4.5749e-03  4.7089e-03  2.1245e-03  0:00:22   63
  1938  4.4413e-03  2.5322e-03  9.5468e-03  3.0507e+01  4.4344e-03  4.7263e-03  2.1299e-03  0:00:17   62
  1939  4.2965e-03  2.5298e-03  9.5075e-03  3.0377e+01  4.2893e-03  4.7423e-03  2.1299e-03  0:00:13   61
  1940  4.1479e-03  2.5263e-03  9.4657e-03  3.0145e+01  4.1404e-03  4.7542e-03  2.1281e-03  0:00:10   60
  1941  4.0052e-03  2.5216e-03  9.4225e-03  2.9757e+01  3.9973e-03  4.7625e-03  2.1294e-03  0:00:20   59
  1942  3.8601e-03  2.5156e-03  9.3783e-03  2.9212e+01  3.8518e-03  4.7702e-03  2.1306e-03  0:00:16   58
  1943  3.7256e-03  2.5083e-03  9.3334e-03  2.8492e+01  3.7169e-03  4.7703e-03  2.1337e-03  0:00:12   57
  1944  3.5985e-03  2.4999e-03  9.2900e-03  2.7633e+01  3.5894e-03  4.7667e-03  2.1352e-03  0:00:10   56
  1945  3.4791e-03  2.4907e-03  9.2515e-03  2.6662e+01  3.4696e-03  4.7623e-03  2.1402e-03  0:00:19   55
  1946  3.3686e-03  2.4799e-03  9.2111e-03  2.5603e+01  3.3588e-03  4.7584e-03  2.1318e-03  0:00:15   54
  1947  3.2707e-03  2.4683e-03  9.1839e-03  2.4483e+01  3.2606e-03  4.7533e-03  2.1336e-03  0:00:12   53

  iter  continuity  x-velocity  y-velocity  z-velocity      energy           k       omega     time/iter
  1948  3.1865e-03  2.4557e-03  9.1593e-03  2.3315e+01  3.1762e-03  4.7471e-03  2.1422e-03  0:00:09   52
  1949  3.1204e-03  2.4437e-03  9.1392e-03  2.2092e+01  3.1100e-03  4.7404e-03  2.1457e-03  0:00:17   51
  1950  3.0605e-03  2.4322e-03  9.1230e-03  2.0835e+01  3.0501e-03  4.7343e-03  2.1503e-03  0:00:14   50
  1951  3.0126e-03  2.4218e-03  9.1108e-03  1.9591e+01  3.0022e-03  4.7300e-03  2.1516e-03  0:00:11   49
  1952  2.9820e-03  2.4122e-03  9.1137e-03  1.8396e+01  2.9717e-03  4.7299e-03  2.1528e-03  0:00:08   48
  1953  2.9526e-03  2.4027e-03  9.1292e-03  1.7284e+01  2.9425e-03  4.7412e-03  2.1530e-03  0:00:16   47
  1954  2.9427e-03  2.3951e-03  9.1436e-03  1.6281e+01  2.9327e-03  4.7574e-03  2.1478e-03  0:00:12   46
  1955  2.9466e-03  2.3901e-03  9.1675e-03  1.5442e+01  2.9369e-03  4.7738e-03  2.1474e-03  0:00:10   45
  1956  2.9615e-03  2.3852e-03  9.1911e-03  1.4838e+01  2.9521e-03  4.7908e-03  2.1453e-03  0:00:16   44
  1957  2.9793e-03  2.3818e-03  9.2139e-03  1.4558e+01  2.9701e-03  4.8074e-03  2.1461e-03  0:00:13   43
  1958  2.9975e-03  2.3804e-03  9.2347e-03  1.4690e+01  2.9886e-03  4.8244e-03  2.1509e-03  0:00:10   42

  iter  continuity  x-velocity  y-velocity  z-velocity      energy           k       omega     time/iter
  1959  3.0181e-03  2.3737e-03  9.2530e-03  1.5165e+01  3.0093e-03  4.8416e-03  2.1534e-03  0:00:08   41
  1960  3.0370e-03  2.3641e-03  9.2658e-03  1.5880e+01  3.0283e-03  4.8560e-03  2.1553e-03  0:00:14   40
  1961  3.0506e-03  2.3562e-03  9.2712e-03  1.6660e+01  3.0420e-03  4.8682e-03  2.1614e-03  0:00:11   39
  1962  3.0578e-03  2.3485e-03  9.2697e-03  1.7439e+01  3.0492e-03  4.8768e-03  2.1671e-03  0:00:09   38
  1963  3.0632e-03  2.3403e-03  9.2633e-03  1.8156e+01  3.0546e-03  4.8874e-03  2.1729e-03  0:00:07   37
  1964  3.0688e-03  2.3348e-03  9.2494e-03  1.8811e+01  3.0602e-03  4.8988e-03  2.1734e-03  0:00:12   36
  1965  3.0715e-03  2.3313e-03  9.2275e-03  1.9467e+01  3.0628e-03  4.9132e-03  2.1642e-03  0:00:10   35
  1966  3.0689e-03  2.3272e-03  9.1981e-03  2.0228e+01  3.0602e-03  4.9272e-03  2.1583e-03  0:00:07   34
  1967  3.0654e-03  2.3237e-03  9.1615e-03  2.1225e+01  3.0565e-03  4.9403e-03  2.1557e-03  0:00:06   33
  1968  3.0636e-03  2.3229e-03  9.1196e-03  2.2486e+01  3.0547e-03  4.9464e-03  2.1522e-03  0:00:11   32
  1969  3.0619e-03  2.3217e-03  9.0720e-03  2.3936e+01  3.0529e-03  4.9482e-03  2.1524e-03  0:00:08   31

  iter  continuity  x-velocity  y-velocity  z-velocity      energy           k       omega     time/iter
  1970  3.0597e-03  2.3202e-03  9.0194e-03  2.5472e+01  3.0506e-03  4.9524e-03  2.1593e-03  0:00:07   30
  1971  3.0653e-03  2.3172e-03  8.9742e-03  2.7039e+01  3.0561e-03  4.9573e-03  2.1645e-03  0:00:05   29
  1972  3.0821e-03  2.3100e-03  8.9371e-03  2.8568e+01  3.0730e-03  4.9628e-03  2.1585e-03  0:00:10   28
  1973  3.1107e-03  2.3013e-03  8.9088e-03  2.9985e+01  3.1016e-03  4.9715e-03  2.1516e-03  0:00:07   27
  1974  3.1529e-03  2.2941e-03  8.8829e-03  3.1205e+01  3.1439e-03  4.9788e-03  2.1473e-03  0:00:06   26
  1975  3.2076e-03  2.2901e-03  8.8736e-03  3.2171e+01  3.1987e-03  4.9843e-03  2.1419e-03  0:00:04   25
  1976  3.2750e-03  2.2879e-03  8.8731e-03  3.2785e+01  3.2662e-03  4.9939e-03  2.1404e-03  0:00:08   24
  1977  3.3548e-03  2.2863e-03  8.8832e-03  3.3081e+01  3.3463e-03  4.9931e-03  2.1390e-03  0:00:06   23
  1978  3.4434e-03  2.2854e-03  8.9086e-03  3.3098e+01  3.4352e-03  4.9931e-03  2.1391e-03  0:00:05   22
  1979  3.5395e-03  2.2859e-03  8.9486e-03  3.2911e+01  3.5316e-03  4.9934e-03  2.1333e-03  0:00:04   21
  1980  3.6388e-03  2.2876e-03  8.9987e-03  3.2559e+01  3.6313e-03  4.9963e-03  2.1267e-03  0:00:07   20

  iter  continuity  x-velocity  y-velocity  z-velocity      energy           k       omega     time/iter
  1981  3.7411e-03  2.2898e-03  9.0554e-03  3.2106e+01  3.7341e-03  5.0027e-03  2.1173e-03  0:00:05   19
  1982  3.8427e-03  2.2924e-03  9.1148e-03  3.1555e+01  3.8360e-03  5.0110e-03  2.1116e-03  0:00:04   18
  1983  3.9423e-03  2.2949e-03  9.1708e-03  3.0870e+01  3.9360e-03  5.0317e-03  2.1047e-03  0:00:03   17
  1984  4.0413e-03  2.2963e-03  9.2211e-03  3.0043e+01  4.0353e-03  5.0595e-03  2.1005e-03  0:00:05   16
  1985  4.1417e-03  2.2968e-03  9.2644e-03  2.9101e+01  4.1362e-03  5.0855e-03  2.0944e-03  0:00:04   15
  1986  4.2339e-03  2.2931e-03  9.3054e-03  2.8093e+01  4.2288e-03  5.1120e-03  2.0980e-03  0:00:03   14
  1987  4.3133e-03  2.2861e-03  9.3439e-03  2.7140e+01  4.3085e-03  5.1334e-03  2.0983e-03  0:00:02   13
  1988  4.3745e-03  2.2742e-03  9.3768e-03  2.6230e+01  4.3699e-03  5.1485e-03  2.0849e-03  0:00:04   12
  1989  4.4190e-03  2.2589e-03  9.4046e-03  2.5415e+01  4.4147e-03  5.1558e-03  2.0750e-03  0:00:03   11
  1990  4.4509e-03  2.2439e-03  9.4269e-03  2.4643e+01  4.4469e-03  5.1706e-03  2.0702e-03  0:00:02   10
  1991  4.4703e-03  2.2263e-03  9.4424e-03  2.3976e+01  4.4665e-03  5.1805e-03  2.0620e-03  0:00:03    9

  iter  continuity  x-velocity  y-velocity  z-velocity      energy           k       omega     time/iter
  1992  4.4741e-03  2.2086e-03  9.4540e-03  2.3441e+01  4.4704e-03  5.2050e-03  2.0527e-03  0:00:02    8
  1993  4.4633e-03  2.1939e-03  9.4635e-03  2.3078e+01  4.4598e-03  5.2041e-03  2.0434e-03  0:00:02    7
  1994  4.4274e-03  2.1816e-03  9.4725e-03  2.3003e+01  4.4240e-03  5.2017e-03  2.0316e-03  0:00:01    6
  1995  4.3898e-03  2.1662e-03  9.4830e-03  2.3219e+01  4.3866e-03  5.1946e-03  2.0192e-03  0:00:02    5
  1996  4.3481e-03  2.1507e-03  9.4986e-03  2.3698e+01  4.3449e-03  5.1898e-03  2.0028e-03  0:00:01    4
  1997  4.3001e-03  2.1341e-03  9.5233e-03  2.4419e+01  4.2970e-03  5.2093e-03  1.9930e-03  0:00:01    3
  1998  4.2457e-03  2.1192e-03  9.5625e-03  2.5279e+01  4.2425e-03  5.2328e-03  1.9901e-03  0:00:01    2
  1999  4.1848e-03  2.1055e-03  9.6156e-03  2.6190e+01  4.1817e-03  5.2506e-03  1.9861e-03  0:00:00    1
  2000  4.1228e-03  2.0941e-03  9.6820e-03  2.7047e+01  4.1196e-03  5.2784e-03  1.9785e-03  0:00:00    0

> 
adjoint/                parallel/               server/
define/                 parametric-study/       solve/
display/                plot/                   surface/
exit                    preferences/            turbo-workflow/
file/                   print-license-usage     views/
mesh/                   report/

> /file/write-case-data project1
Fast-loading "C:\PROGRA~1\ANSYSI~1\v231\fluent\fluent23.1.0\\addons\afd\lib\hdfio.bin"
Done.

Writing to Engs-30669:"C:\Users\kebl7595\Desktop\CFD\Runs\Flap\27 degree\project1.cas.h5" in NODE0 mode and compression level 1 ...
       24072 cells,     1 zone  ...
       80918 faces,     7 zones ...
       33000 nodes,     1 zone  ...
  Done.
Done.

Writing to Engs-30669:"C:\Users\kebl7595\Desktop\CFD\Runs\Flap\27 degree\project1.dat.h5" in NODE0 mode and compression level 1 ...
  Writing results.
Done.

> /file/export/ascii "./surface.dat" wing () no pressure mach-number quit no

Writing "./surface.dat"...

Writing information to ascii file ...
Done.


> /report/forces/wall-forces y -0.45399 -0.89101 0 y "Lift"

> /report/forces/wall-forces y 0.89101 -0.45399 0 y "Drag"

> ;/exit

> /exit y

Posting ANSYS Product Improvement Program performance data 
Done.
Auto-Transcript Stop Time:  10:25:15, 22 May 2024 GMT Daylight Time 
Total Transcript Time: 14 Minute 53 Second.
