Auto-Transcript Start Time:  10:44:38, 21 May 2024 GMT Daylight Time 
Current Directory: "C:\Users\kebl7595\Desktop\CFD\Runs\Viscous\24 degree"

              Welcome to ANSYS Fluent 2023 R1

              Copyright 1987-2023 ANSYS, Inc. All Rights Reserved.
              Unauthorized use, distribution or duplication is prohibited.
              This product is subject to U.S. laws governing export and re-export.
              For full Legal Notice, see documentation.

Build Time: Nov 28 2022 09:52:02 EST  Build Id: 10208  
 
Connected License Server List:	1055@ansyslic.eng.ox.ac.uk

*********************************************
Info: Your license enables 4-way parallel execution.
For faster simulations, please start the application with the appropriate parallel options.
*********************************************


     --------------------------------------------------------------
     This is an academic version of ANSYS FLUENT. Usage of this product
     license is limited to the terms and conditions specified in your ANSYS
     license form, additional terms section.
     --------------------------------------------------------------
Host spawning Node 0 on machine "Engs-30669" (win64).

------------------------------------------------------------------------------------
ID    Hostname    Core  O.S.         PID    Vendor                                 
------------------------------------------------------------------------------------
n0    Engs-30669  1/32  Windows-x64  50812  13th Gen Intel(R) Core(TM) i9-13900    
host  Engs-30669        Windows-x64  46680  13th Gen Intel(R) Core(TM) i9-13900    

MPI Option Selected: intel
------------------------------------------------------------------------------------

Cleanup script file is C:\\Users\\kebl7595\\Desktop\\CFD\\Runs\\Viscous\\24 degree\\cleanup-fluent-Engs-30669-46680.bat
QA Service Message :
QA Services Agreement Enabled. This application is included in the scope of an ANSYS QA Services Agreement.
Posting ANSYS Product Improvement Program startup data
Done.

Reading journal file C:/Users/kebl7595/Desktop/CFD/Runs/Viscous/24 degree/project1.jou...

> /file/set-batch-options no no no 

> 
define/                 parametric-study/       solve/
display/                plot/                   surface/
exit                    preferences/            switch-to-meshing-mode
file/                   print-license-usage     turbo-workflow/
mesh/                   report/                 views/
parallel/               server/

> /file/import/cgns/mesh  "./project1.cgns"
Engs-30669 has other FLUENT parallel processes running.                       Process affinity not being set.

Importing "./project1.cgns"

Opening library "C:\\PROGRA~1\\ANSYSI~1\\v231\\fluent\\fluent23.1.0\\vki\\win64\\devtools4.4.6.dll"... done.

Read    17864 nodes
   12996 hexahedral cells, zone  1
    9462 quadrilateral wall faces, zone  2.
   33972 quadrilateral interior faces, zone  3.
     282 quadrilateral interface faces, zone  4.
       6 quadrilateral wall faces, zone  5.

Building...
     mesh
     materials,
     interface,
     domains,
     zones,
	default_exterior-1
	interface-default_subface
	default_interior-1
	default_subface
	default
     parallel,
The automatic selection for flux type has changed to Rhie-Chow: momentum based.

Done.


> 
adjoint/                parallel/               server/
define/                 parametric-study/       solve/
display/                plot/                   surface/
exit                    preferences/            turbo-workflow/
file/                   print-license-usage     views/
mesh/                   report/

> /define/models/solver/density-based-implicit yes

> 
adjoint/                parallel/               server/
define/                 parametric-study/       solve/
display/                plot/                   surface/
exit                    preferences/            turbo-workflow/
file/                   print-license-usage     views/
mesh/                   report/

> /define/models/energy? yes yes invalid command [yes]
yes

> /define/models/viscous/kw-standard? yes

> 
adjoint/                parallel/               server/
define/                 parametric-study/       solve/
display/                plot/                   surface/
exit                    preferences/            turbo-workflow/
file/                   print-license-usage     views/
mesh/                   report/

> /define/materials/change-create air air air is a fluid
yes 
Density
ideal-gas no data required.

no no no no no no

> 
adjoint/                parallel/               server/
define/                 parametric-study/       solve/
display/                plot/                   surface/
exit                    preferences/            turbo-workflow/
file/                   print-license-usage     views/
mesh/                   report/

> /mesh/modify-zones/sep-face-zone-angle 2 90 yes

 4332 faces in contiguous region 0
 228 faces in contiguous region 1
 342 faces in contiguous region 2
 4332 faces in contiguous region 3
 228 faces in contiguous region 4
 Separates zone 2 into 5 zone(s).
Updating new zone information...
   created new zone default_subface:010 from default_subface
   created new zone default_subface:009 from default_subface
   created new zone default_subface:008 from default_subface
   created new zone default_subface:007 from default_subface
done.

> 
adjoint/                parallel/               server/
define/                 parametric-study/       solve/
display/                plot/                   surface/
exit                    preferences/            turbo-workflow/
file/                   print-license-usage     views/
mesh/                   report/

> /define/boundary-conditions/zone-name  5   te

> /define/boundary-conditions/zone-name  7 wing

> /define/boundary-conditions/zone-name  2 sym1

> /define/boundary-conditions/zone-name  9 sym2

> 
adjoint/                parallel/               server/
define/                 parametric-study/       solve/
display/                plot/                   surface/
exit                    preferences/            turbo-workflow/
file/                   print-license-usage     views/
mesh/                   report/

> /define/boundary-conditions/zone-name  8 far1

> /define/boundary-conditions/zone-name 10 far2

> 
adjoint/                parallel/               server/
define/                 parametric-study/       solve/
display/                plot/                   surface/
exit                    preferences/            turbo-workflow/
file/                   print-license-usage     views/
mesh/                   report/

> /define/boundary-conditions/zone-type  8 pressure-far-field

> /define/boundary-conditions/zone-type 10 pressure-far-field

> /define/boundary-conditions/zone-type  2 symmetry

> /define/boundary-conditions/zone-type  9 symmetry

> 
adjoint/                parallel/               server/
define/                 parametric-study/       solve/
display/                plot/                   surface/
exit                    preferences/            turbo-workflow/
file/                   print-license-usage     views/
mesh/                   report/

> /define/boundary-conditions/pressure-far-field (far2 far1)
far1 no 0 no 0.1 no 300 yes no 0.91355 no 0.40674 no 0. no yes 5 0.02

> /define/boundary-conditions/pressure-far-field (far2 far1)
far2 no 0 no 0.1 no 300 yes no 0.91355 no 0.40674 no 0. no yes 5 0.02

> 
adjoint/                parallel/               server/
define/                 parametric-study/       solve/
display/                plot/                   surface/
exit                    preferences/            turbo-workflow/
file/                   print-license-usage     views/
mesh/                   report/

> /solve/initialize/compute-defaults/pressure-far-field (far2 far1)
far1

> /solve/initialize/initialize-flow

> 
adjoint/                parallel/               server/
define/                 parametric-study/       solve/
display/                plot/                   surface/
exit                    preferences/            turbo-workflow/
file/                   print-license-usage     views/
mesh/                   report/

> /solve/monitors/residual/convergence-criteria 1.e-9 1.e-9 1.e-9 1.e-9 1.e-9 1.e-9 1.e-9

> /solve/iterate 2000

  iter  continuity  x-velocity  y-velocity  z-velocity      energy           k       omega     time/iter
     1  1.0000e+00  1.0000e+00  1.0000e+00  1.0000e+00  1.0000e+00  1.7189e-01  1.2921e-01  0:00:00 1999
     2  4.9915e-01  4.4616e-01  4.6264e-01  1.0000e+00  4.9962e-01  1.2953e-01  1.0117e-01  0:00:00 1998
     3  2.6758e-01  2.1445e-01  2.2392e-01  9.2485e-01  2.6777e-01  1.0100e-01  8.2133e-02  0:33:17 1997
     4  1.6581e-01  1.3509e-01  1.2550e-01  6.9297e-01  1.6586e-01  8.1788e-02  6.8199e-02  0:26:37 1996
     5  1.1799e-01  9.9921e-02  8.2307e-02  5.9516e-01  1.1801e-01  6.9273e-02  5.8135e-02  0:21:17 1995
     6  9.3970e-02  7.3400e-02  5.8616e-02  6.5408e-01  9.4009e-02  5.9662e-02  5.0936e-02  0:17:01 1994
     7  8.0365e-02  5.5871e-02  4.4398e-02  7.2645e-01  8.0427e-02  5.1978e-02  4.5281e-02  0:13:36 1993
     8  7.1370e-02  4.4744e-02  3.5605e-02  7.3759e-01  7.1443e-02  4.5712e-02  4.0529e-02  0:17:31 1992
     9  6.5360e-02  3.7764e-02  2.9985e-02  7.2786e-01  6.5431e-02  4.0568e-02  3.6505e-02  0:14:00 1991
    10  6.1399e-02  3.3713e-02  2.6196e-02  7.0958e-01  6.1458e-02  3.6331e-02  3.3085e-02  0:11:12 1990
    11  5.8984e-02  3.1693e-02  2.3529e-02  6.8978e-01  5.9027e-02  3.2871e-02  3.0158e-02  0:08:57 1989

  iter  continuity  x-velocity  y-velocity  z-velocity      energy           k       omega     time/iter
    12  5.7809e-02  3.1079e-02  2.1606e-02  6.6250e-01  5.7834e-02  3.0021e-02  2.7648e-02  0:07:10 1988
    13  5.7653e-02  3.1444e-02  2.0248e-02  6.4551e-01  5.7659e-02  2.7632e-02  2.5508e-02  0:05:44 1987
    14  5.8328e-02  3.2461e-02  1.9353e-02  6.5012e-01  5.8318e-02  2.5603e-02  2.3645e-02  0:04:35 1986
    15  5.9660e-02  3.3961e-02  1.8911e-02  6.7324e-01  5.9633e-02  2.3855e-02  2.2009e-02  0:10:17 1985
    16  6.1459e-02  3.5636e-02  1.8830e-02  7.1403e-01  6.1415e-02  2.2368e-02  2.0572e-02  0:08:13 1984
    17  6.3589e-02  3.7613e-02  1.8895e-02  7.6482e-01  6.3527e-02  2.1066e-02  1.9300e-02  0:06:34 1983
    18  6.5963e-02  3.9788e-02  1.9240e-02  8.2663e-01  6.5883e-02  1.9907e-02  1.8168e-02  0:05:15 1982
    19  6.8424e-02  4.1874e-02  1.9840e-02  9.0147e-01  6.8323e-02  1.8883e-02  1.7146e-02  0:10:48 1981
    20  7.0876e-02  4.3777e-02  2.0507e-02  9.8812e-01  7.0752e-02  1.7972e-02  1.6239e-02  0:08:38 1980
    21  7.3226e-02  4.5539e-02  2.1312e-02  1.0827e+00  7.3077e-02  1.7158e-02  1.5417e-02  0:06:54 1979
    22  7.5361e-02  4.7121e-02  2.2156e-02  1.1808e+00  7.5184e-02  1.6424e-02  1.4673e-02  0:05:31 1978

  iter  continuity  x-velocity  y-velocity  z-velocity      energy           k       omega     time/iter
    23  7.7182e-02  4.8390e-02  2.3047e-02  1.2749e+00  7.6974e-02  1.5762e-02  1.3990e-02  0:04:25 1977
    24  7.8652e-02  4.9334e-02  2.3950e-02  1.3597e+00  7.8412e-02  1.5160e-02  1.3359e-02  0:03:32 1976
    25  7.9661e-02  4.9528e-02  2.4976e-02  1.4300e+00  7.9386e-02  1.4618e-02  1.2780e-02  0:02:49 1975
    26  8.0166e-02  4.9747e-02  2.5425e-02  1.4791e+00  7.9855e-02  1.4127e-02  1.2238e-02  0:08:50 1974
    27  8.0210e-02  4.9818e-02  2.5679e-02  1.5063e+00  7.9863e-02  1.3683e-02  1.1733e-02  0:07:04 1973
    28  7.9830e-02  4.9690e-02  2.5714e-02  1.5087e+00  7.9446e-02  1.3274e-02  1.1272e-02  0:05:39 1972
    29  7.9010e-02  4.9214e-02  2.5635e-02  1.4891e+00  7.8590e-02  1.2895e-02  1.0828e-02  0:04:31 1971
    30  7.7733e-02  4.8309e-02  2.5363e-02  1.4482e+00  7.7278e-02  1.2547e-02  1.0415e-02  0:03:37 1970
    31  7.6044e-02  4.7449e-02  2.4794e-02  1.3887e+00  7.5557e-02  1.2228e-02  1.0023e-02  0:02:53 1969
    32  7.3986e-02  4.6563e-02  2.4135e-02  1.3238e+00  7.3470e-02  1.1923e-02  9.6502e-03  0:02:19 1968
    33  7.1575e-02  4.5567e-02  2.3010e-02  1.2650e+00  7.1031e-02  1.1645e-02  9.2892e-03  0:08:24 1967

  iter  continuity  x-velocity  y-velocity  z-velocity      energy           k       omega     time/iter
    34  6.8879e-02  4.4432e-02  2.2357e-02  1.2230e+00  6.8313e-02  1.1383e-02  8.9359e-03  0:06:43 1966
    35  6.5939e-02  4.3079e-02  2.1932e-02  1.2076e+00  6.5352e-02  1.1151e-02  8.6101e-03  0:05:22 1965
    36  6.2817e-02  4.1646e-02  2.1813e-02  1.2165e+00  6.2214e-02  1.0942e-02  8.3206e-03  0:04:18 1964
    37  5.9513e-02  3.9616e-02  2.2355e-02  1.2550e+00  5.8897e-02  1.0757e-02  8.0563e-03  0:03:26 1963
    38  5.6064e-02  3.8023e-02  2.3175e-02  1.3131e+00  5.5438e-02  1.0623e-02  7.7933e-03  0:02:45 1962
    39  5.2497e-02  3.6721e-02  2.4468e-02  1.3807e+00  5.1866e-02  1.0496e-02  7.5532e-03  0:02:12 1961
    40  4.8858e-02  3.5546e-02  2.6289e-02  1.4438e+00  4.8223e-02  1.0401e-02  7.3457e-03  0:08:17 1960
    41  4.5194e-02  3.4477e-02  2.8540e-02  1.4972e+00  4.4559e-02  1.0354e-02  7.1547e-03  0:06:38 1959
    42  4.1559e-02  3.3586e-02  3.1124e-02  1.5359e+00  4.0926e-02  1.0351e-02  6.9798e-03  0:05:18 1958
    43  3.7968e-02  3.2911e-02  3.3684e-02  1.5582e+00  3.7340e-02  1.0379e-02  6.8089e-03  0:04:14 1957
    44  3.4476e-02  3.2619e-02  3.6356e-02  1.5612e+00  3.3855e-02  1.0417e-02  6.6505e-03  0:03:23 1956

  iter  continuity  x-velocity  y-velocity  z-velocity      energy           k       omega     time/iter
    45  3.1126e-02  3.2586e-02  3.9172e-02  1.5427e+00  3.0515e-02  1.0492e-02  6.5113e-03  0:02:43 1955
    46  2.7912e-02  3.2723e-02  4.1979e-02  1.5045e+00  2.7312e-02  1.0612e-02  6.3998e-03  0:08:41 1954
    47  2.4861e-02  3.3232e-02  4.4732e-02  1.4472e+00  2.4275e-02  1.0782e-02  6.3025e-03  0:06:56 1953
    48  2.2043e-02  3.4182e-02  4.7424e-02  1.3770e+00  2.1475e-02  1.0978e-02  6.1758e-03  0:05:33 1952
    49  1.9507e-02  3.5394e-02  5.0029e-02  1.2982e+00  1.8963e-02  1.1181e-02  6.0512e-03  0:04:26 1951
    50  1.7307e-02  3.6808e-02  5.2523e-02  1.2182e+00  1.6796e-02  1.1409e-02  5.9240e-03  0:03:33 1950
    51  1.5491e-02  3.8354e-02  5.4885e-02  1.1473e+00  1.5023e-02  1.1685e-02  5.8390e-03  0:02:50 1949
    52  1.4107e-02  4.0001e-02  5.7079e-02  1.0916e+00  1.3697e-02  1.1983e-02  5.7457e-03  0:08:46 1948
    53  1.3196e-02  4.1733e-02  5.9061e-02  1.0520e+00  1.2856e-02  1.2308e-02  5.6398e-03  0:07:00 1947
    54  1.2756e-02  4.3530e-02  6.0807e-02  1.0268e+00  1.2496e-02  1.2629e-02  5.5502e-03  0:05:36 1946
    55  1.2765e-02  4.5389e-02  6.2303e-02  1.0169e+00  1.2585e-02  1.3011e-02  5.4554e-03  0:04:29 1945

  iter  continuity  x-velocity  y-velocity  z-velocity      energy           k       omega     time/iter
    56  1.3145e-02  4.7273e-02  6.3536e-02  1.0219e+00  1.3036e-02  1.3400e-02  5.3423e-03  0:03:35 1944
    57  1.3795e-02  4.9167e-02  6.4491e-02  1.0360e+00  1.3745e-02  1.3781e-02  5.2517e-03  0:02:52 1943
    58  1.4627e-02  5.1072e-02  6.5180e-02  1.0578e+00  1.4622e-02  1.4168e-02  5.1832e-03  0:02:17 1942
    59  1.5571e-02  5.2965e-02  6.5593e-02  1.0818e+00  1.5599e-02  1.4574e-02  5.1224e-03  0:08:18 1941
    60  1.6571e-02  5.4839e-02  6.5743e-02  1.1071e+00  1.6621e-02  1.5030e-02  5.0951e-03  0:06:38 1940
    61  1.7587e-02  5.6640e-02  6.5639e-02  1.1317e+00  1.7652e-02  1.5508e-02  5.0660e-03  0:05:18 1939
    62  1.8590e-02  5.8389e-02  6.5296e-02  1.1515e+00  1.8663e-02  1.6018e-02  5.0618e-03  0:04:15 1938
    63  1.9560e-02  6.0052e-02  6.4721e-02  1.1646e+00  1.9637e-02  1.6701e-02  5.1197e-03  0:03:24 1937
    64  2.0469e-02  6.1560e-02  6.3887e-02  1.1740e+00  2.0546e-02  1.7315e-02  5.0811e-03  0:02:43 1936
    65  2.1313e-02  6.2913e-02  6.2839e-02  1.1817e+00  2.1386e-02  1.8039e-02  5.0701e-03  0:08:37 1935
    66  2.2077e-02  6.4114e-02  6.1582e-02  1.1920e+00  2.2145e-02  1.8815e-02  5.0495e-03  0:06:54 1934

  iter  continuity  x-velocity  y-velocity  z-velocity      energy           k       omega     time/iter
    67  2.2755e-02  6.5124e-02  6.0144e-02  1.1933e+00  2.2816e-02  1.9667e-02  5.0339e-03  0:05:31 1933
    68  2.3327e-02  6.5871e-02  5.8486e-02  1.1787e+00  2.3379e-02  2.0526e-02  5.0379e-03  0:04:24 1932
    69  2.3789e-02  6.6285e-02  5.6610e-02  1.1571e+00  2.3830e-02  2.1405e-02  5.0537e-03  0:03:31 1931
    70  2.4145e-02  6.6454e-02  5.4643e-02  1.1333e+00  2.4175e-02  2.2249e-02  5.0451e-03  0:02:49 1930
    71  2.4379e-02  6.6231e-02  5.2482e-02  1.1076e+00  2.4396e-02  2.3177e-02  5.0535e-03  0:02:15 1929
    72  2.4496e-02  6.5651e-02  5.0304e-02  1.0851e+00  2.4500e-02  2.4156e-02  5.0491e-03  0:08:14 1928
    73  2.4508e-02  6.4772e-02  4.8213e-02  1.0653e+00  2.4498e-02  2.4943e-02  5.0532e-03  0:06:35 1927
    74  2.4384e-02  6.3422e-02  4.5903e-02  1.0588e+00  2.4358e-02  2.5889e-02  5.0468e-03  0:05:16 1926
    75  2.4153e-02  6.1815e-02  4.3600e-02  1.0556e+00  2.4113e-02  2.6679e-02  5.0402e-03  0:04:12 1925
    76  2.3813e-02  5.9948e-02  4.1350e-02  1.0566e+00  2.3757e-02  2.7248e-02  5.0311e-03  0:03:22 1924
    77  2.3376e-02  5.7926e-02  3.9311e-02  1.0648e+00  2.3305e-02  2.7748e-02  5.0176e-03  0:02:41 1923

  iter  continuity  x-velocity  y-velocity  z-velocity      energy           k       omega     time/iter
    78  2.2852e-02  5.5757e-02  3.7551e-02  1.0806e+00  2.2768e-02  2.8476e-02  5.0056e-03  0:08:33 1922
    79  2.2219e-02  5.3139e-02  3.5823e-02  1.1027e+00  2.2122e-02  2.9236e-02  5.0063e-03  0:06:51 1921
    80  2.1479e-02  5.0365e-02  3.4235e-02  1.1322e+00  2.1373e-02  2.9930e-02  4.9728e-03  0:05:28 1920
    81  2.0723e-02  4.7678e-02  3.3143e-02  1.1662e+00  2.0609e-02  3.0506e-02  4.9391e-03  0:04:22 1919
    82  1.9968e-02  4.5055e-02  3.2548e-02  1.1996e+00  1.9849e-02  3.1023e-02  4.9229e-03  0:03:30 1918
    83  1.9202e-02  4.2549e-02  3.2092e-02  1.2303e+00  1.9081e-02  3.1550e-02  4.9327e-03  0:02:48 1917
    84  1.8480e-02  4.0386e-02  3.1928e-02  1.2622e+00  1.8361e-02  3.2456e-02  4.9572e-03  0:08:37 1916
    85  1.7823e-02  3.8484e-02  3.1949e-02  1.2950e+00  1.7709e-02  3.3402e-02  4.9369e-03  0:06:54 1915
    86  1.7240e-02  3.6904e-02  3.2029e-02  1.3278e+00  1.7134e-02  3.4416e-02  4.9282e-03  0:05:31 1914
    87  1.6744e-02  3.5758e-02  3.2201e-02  1.3571e+00  1.6648e-02  3.5159e-02  4.8984e-03  0:04:24 1913
    88  1.6389e-02  3.5021e-02  3.2475e-02  1.3735e+00  1.6305e-02  3.5758e-02  4.8783e-03  0:03:31 1912

  iter  continuity  x-velocity  y-velocity  z-velocity      energy           k       omega     time/iter
    89  1.6149e-02  3.4661e-02  3.2799e-02  1.3833e+00  1.6076e-02  3.6187e-02  4.8932e-03  0:02:49 1911
    90  1.6002e-02  3.4524e-02  3.3185e-02  1.3790e+00  1.5940e-02  3.6664e-02  4.8972e-03  0:08:37 1910
    91  1.5851e-02  3.4385e-02  3.3453e-02  1.3577e+00  1.5796e-02  3.7070e-02  4.8878e-03  0:06:54 1909
    92  1.5716e-02  3.4357e-02  3.3520e-02  1.3321e+00  1.5664e-02  3.7844e-02  4.9002e-03  0:05:31 1908
    93  1.5676e-02  3.4527e-02  3.3392e-02  1.2948e+00  1.5622e-02  3.8675e-02  4.8473e-03  0:04:24 1907
    94  1.5688e-02  3.4759e-02  3.3029e-02  1.2584e+00  1.5630e-02  3.9265e-02  4.8237e-03  0:03:31 1906
    95  1.5713e-02  3.5004e-02  3.2472e-02  1.2227e+00  1.5648e-02  3.9961e-02  4.7979e-03  0:02:49 1905
    96  1.5728e-02  3.5163e-02  3.1734e-02  1.1913e+00  1.5654e-02  4.0296e-02  4.7416e-03  0:02:15 1904
    97  1.5686e-02  3.5240e-02  3.0822e-02  1.1619e+00  1.5602e-02  4.0544e-02  4.6984e-03  0:08:09 1903
    98  1.5583e-02  3.5197e-02  2.9756e-02  1.1427e+00  1.5489e-02  4.0191e-02  4.6922e-03  0:06:31 1902
    99  1.5407e-02  3.4997e-02  2.8559e-02  1.1227e+00  1.5303e-02  3.9615e-02  4.6757e-03  0:05:12 1901

  iter  continuity  x-velocity  y-velocity  z-velocity      energy           k       omega     time/iter
   100  1.5159e-02  3.4662e-02  2.7201e-02  1.1038e+00  1.5046e-02  3.9329e-02  4.6453e-03  0:04:10 1900
   101  1.4829e-02  3.4167e-02  2.5728e-02  1.0849e+00  1.4708e-02  3.9484e-02  4.5855e-03  0:03:20 1899
   102  1.4427e-02  3.3510e-02  2.4170e-02  1.0701e+00  1.4300e-02  3.9814e-02  4.5281e-03  0:02:40 1898
   103  1.3978e-02  3.2625e-02  2.2582e-02  1.0586e+00  1.3846e-02  4.0123e-02  4.4610e-03  0:08:27 1897
   104  1.3494e-02  3.1595e-02  2.0972e-02  1.0522e+00  1.3359e-02  3.9975e-02  4.3839e-03  0:06:45 1896
   105  1.3006e-02  3.0488e-02  1.9336e-02  1.0447e+00  1.2869e-02  4.0064e-02  4.3053e-03  0:05:24 1895
   106  1.2557e-02  2.9291e-02  1.7735e-02  1.0355e+00  1.2420e-02  4.0465e-02  4.2383e-03  0:04:19 1894
   107  1.2156e-02  2.8016e-02  1.6211e-02  1.0269e+00  1.2022e-02  4.0427e-02  4.2366e-03  0:03:27 1893
   108  1.1820e-02  2.6678e-02  1.4804e-02  1.0259e+00  1.1690e-02  3.9973e-02  4.1500e-03  0:02:46 1892
   109  1.1587e-02  2.5308e-02  1.3567e-02  1.0197e+00  1.1463e-02  3.9711e-02  4.0493e-03  0:08:31 1891
   110  1.1475e-02  2.3937e-02  1.2543e-02  1.0313e+00  1.1358e-02  3.8774e-02  3.9281e-03  0:06:48 1890

  iter  continuity  x-velocity  y-velocity  z-velocity      energy           k       omega     time/iter
   111  1.1491e-02  2.2280e-02  1.1872e-02  1.0503e+00  1.1381e-02  3.7171e-02  3.8055e-03  0:05:27 1889
   112  1.1652e-02  2.0879e-02  1.1355e-02  1.0758e+00  1.1548e-02  3.6234e-02  3.6761e-03  0:04:21 1888
   113  1.1918e-02  1.9830e-02  1.0964e-02  1.1072e+00  1.1819e-02  3.5078e-02  3.5609e-03  0:03:29 1887
   114  1.2268e-02  1.9068e-02  1.0770e-02  1.1446e+00  1.2173e-02  3.4213e-02  3.4499e-03  0:02:47 1886
   115  1.2694e-02  1.8590e-02  1.0776e-02  1.1881e+00  1.2601e-02  3.3491e-02  3.3576e-03  0:02:13 1885
   116  1.3137e-02  1.8416e-02  1.0939e-02  1.2413e+00  1.3045e-02  3.2268e-02  3.2313e-03  0:08:04 1884
   117  1.3588e-02  1.8330e-02  1.1146e-02  1.3004e+00  1.3495e-02  3.1550e-02  3.1203e-03  0:06:27 1883
   118  1.4051e-02  1.8420e-02  1.1375e-02  1.3604e+00  1.3956e-02  3.0512e-02  3.0082e-03  0:05:09 1882
   119  1.4479e-02  1.8968e-02  1.1755e-02  1.4180e+00  1.4381e-02  2.9454e-02  2.9071e-03  0:04:07 1881
   120  1.4872e-02  1.9734e-02  1.2211e-02  1.4738e+00  1.4768e-02  2.7834e-02  2.7838e-03  0:03:18 1880
   121  1.5237e-02  2.0631e-02  1.2705e-02  1.5264e+00  1.5127e-02  2.6701e-02  2.6717e-03  0:02:38 1879

  iter  continuity  x-velocity  y-velocity  z-velocity      energy           k       omega     time/iter
   122  1.5543e-02  2.1596e-02  1.3222e-02  1.5694e+00  1.5425e-02  2.6002e-02  2.5832e-03  0:02:06 1878
   123  1.5822e-02  2.2587e-02  1.3765e-02  1.5967e+00  1.5697e-02  2.4872e-02  2.4919e-03  0:07:56 1877
   124  1.6085e-02  2.3550e-02  1.4340e-02  1.6153e+00  1.5950e-02  2.3709e-02  2.4041e-03  0:06:21 1876
   125  1.6301e-02  2.4434e-02  1.4952e-02  1.6300e+00  1.6157e-02  2.3041e-02  2.3412e-03  0:05:05 1875
   126  1.6475e-02  2.5193e-02  1.5615e-02  1.6410e+00  1.6322e-02  2.2448e-02  2.3018e-03  0:04:04 1874
   127  1.6578e-02  2.5806e-02  1.6344e-02  1.6513e+00  1.6416e-02  2.1667e-02  2.2396e-03  0:03:15 1873
   128  1.6628e-02  2.6252e-02  1.7140e-02  1.6586e+00  1.6457e-02  2.1083e-02  2.1673e-03  0:02:36 1872
   129  1.6617e-02  2.6514e-02  1.7995e-02  1.6655e+00  1.6439e-02  2.0753e-02  2.1204e-03  0:08:19 1871
   130  1.6552e-02  2.6567e-02  1.8915e-02  1.6663e+00  1.6367e-02  2.0588e-02  2.0839e-03  0:06:39 1870
   131  1.6409e-02  2.6429e-02  1.9894e-02  1.6598e+00  1.6218e-02  2.0349e-02  2.0507e-03  0:05:19 1869
   132  1.6163e-02  2.6111e-02  2.0854e-02  1.6474e+00  1.5967e-02  2.0100e-02  2.0343e-03  0:04:15 1868

  iter  continuity  x-velocity  y-velocity  z-velocity      energy           k       omega     time/iter
   133  1.5798e-02  2.5622e-02  2.1818e-02  1.6305e+00  1.5599e-02  1.9715e-02  2.0258e-03  0:03:24 1867
   134  1.5309e-02  2.4879e-02  2.2771e-02  1.6093e+00  1.5107e-02  1.9575e-02  2.0468e-03  0:02:43 1866
   135  1.4765e-02  2.4245e-02  2.3643e-02  1.5848e+00  1.4562e-02  1.9099e-02  2.0887e-03  0:02:10 1865
   136  1.4188e-02  2.4097e-02  2.4382e-02  1.5544e+00  1.3987e-02  1.9280e-02  2.1197e-03  0:07:57 1864
   137  1.3640e-02  2.3549e-02  2.5117e-02  1.5221e+00  1.3442e-02  1.9956e-02  2.1538e-03  0:06:21 1863
   138  1.3179e-02  2.2694e-02  2.5747e-02  1.4896e+00  1.2988e-02  2.0273e-02  2.1961e-03  0:05:05 1862
   139  1.2855e-02  2.1700e-02  2.6228e-02  1.4580e+00  1.2675e-02  2.0655e-02  2.2409e-03  0:04:04 1861
   140  1.2686e-02  2.0777e-02  2.6561e-02  1.4269e+00  1.2520e-02  2.0744e-02  2.2832e-03  0:03:15 1860
   141  1.2618e-02  2.0482e-02  2.6741e-02  1.3976e+00  1.2468e-02  2.0680e-02  2.3067e-03  0:02:36 1859
   142  1.2752e-02  2.0355e-02  2.6912e-02  1.3682e+00  1.2622e-02  2.0545e-02  2.3299e-03  0:08:16 1858
   143  1.3064e-02  2.0117e-02  2.6926e-02  1.3368e+00  1.2953e-02  2.0162e-02  2.3866e-03  0:06:37 1857

  iter  continuity  x-velocity  y-velocity  z-velocity      energy           k       omega     time/iter
   144  1.3474e-02  1.9944e-02  2.6732e-02  1.3036e+00  1.3382e-02  1.9761e-02  2.4535e-03  0:05:17 1856
   145  1.3942e-02  1.9974e-02  2.6354e-02  1.2682e+00  1.3866e-02  1.9810e-02  2.5340e-03  0:04:14 1855
   146  1.4406e-02  2.0078e-02  2.5867e-02  1.2315e+00  1.4344e-02  2.0627e-02  2.5897e-03  0:03:23 1854
   147  1.4747e-02  2.0037e-02  2.5304e-02  1.1931e+00  1.4699e-02  2.1656e-02  2.6477e-03  0:02:42 1853
   148  1.4993e-02  2.0640e-02  2.4636e-02  1.1540e+00  1.4956e-02  2.2885e-02  2.7209e-03  0:08:20 1852
   149  1.5052e-02  2.1275e-02  2.3887e-02  1.1136e+00  1.5025e-02  2.4171e-02  2.7947e-03  0:06:40 1851
   150  1.4753e-02  2.1607e-02  2.3150e-02  1.0721e+00  1.4735e-02  2.5972e-02  2.8361e-03  0:05:20 1850
   151  1.4141e-02  2.1683e-02  2.2431e-02  1.0300e+00  1.4132e-02  2.7599e-02  2.8930e-03  0:04:16 1849
   152  1.3332e-02  2.1532e-02  2.1682e-02  9.8783e-01  1.3330e-02  2.8668e-02  2.9526e-03  0:03:24 1848
   153  1.2448e-02  2.1497e-02  2.0888e-02  9.4599e-01  1.2453e-02  3.0286e-02  3.0114e-03  0:02:43 1847
   154  1.1559e-02  2.1582e-02  1.9971e-02  9.0576e-01  1.1570e-02  3.1658e-02  3.0644e-03  0:08:20 1846

  iter  continuity  x-velocity  y-velocity  z-velocity      energy           k       omega     time/iter
   155  1.0719e-02  2.1697e-02  1.8997e-02  8.6845e-01  1.0734e-02  3.2708e-02  3.1388e-03  0:06:40 1845
   156  9.9546e-03  2.1783e-02  1.8013e-02  8.3392e-01  9.9720e-03  3.3744e-02  3.1761e-03  0:05:20 1844
   157  9.3159e-03  2.1788e-02  1.7031e-02  8.0382e-01  9.3347e-03  3.4396e-02  3.1822e-03  0:04:16 1843
   158  8.8459e-03  2.1701e-02  1.6067e-02  7.7842e-01  8.8647e-03  3.4273e-02  3.1737e-03  0:03:24 1842
   159  8.5704e-03  2.1468e-02  1.5132e-02  7.6027e-01  8.5873e-03  3.4140e-02  3.1624e-03  0:02:43 1841
   160  8.4864e-03  2.1123e-02  1.4208e-02  7.4657e-01  8.4999e-03  3.4048e-02  3.1236e-03  0:02:11 1840
   161  8.5834e-03  2.0697e-02  1.3296e-02  7.4069e-01  8.5923e-03  3.3447e-02  3.0427e-03  0:07:52 1839
   162  8.8230e-03  2.0205e-02  1.2410e-02  7.4319e-01  8.8268e-03  3.2210e-02  2.9474e-03  0:06:18 1838
   163  9.1770e-03  1.9672e-02  1.1556e-02  7.5703e-01  9.1756e-03  3.0225e-02  2.8606e-03  0:05:02 1837
   164  9.6110e-03  1.9140e-02  1.0739e-02  7.8748e-01  9.6045e-03  2.8926e-02  2.7508e-03  0:04:01 1836
   165  1.0070e-02  1.8598e-02  9.9835e-03  8.3669e-01  1.0059e-02  2.7257e-02  2.6232e-03  0:03:13 1835

  iter  continuity  x-velocity  y-velocity  z-velocity      energy           k       omega     time/iter
   166  1.0518e-02  1.8023e-02  9.3134e-03  9.0268e-01  1.0502e-02  2.5562e-02  2.4986e-03  0:02:34 1834
   167  1.0914e-02  1.7396e-02  8.7503e-03  9.7256e-01  1.0895e-02  2.4339e-02  2.3728e-03  0:08:10 1833
   168  1.1242e-02  1.6702e-02  8.3024e-03  1.0473e+00  1.1219e-02  2.3038e-02  2.2675e-03  0:06:32 1832
   169  1.1494e-02  1.6109e-02  7.9655e-03  1.1296e+00  1.1469e-02  2.1371e-02  2.1719e-03  0:05:13 1831
   170  1.1638e-02  1.5546e-02  7.7068e-03  1.2147e+00  1.1610e-02  2.0073e-02  2.0896e-03  0:04:10 1830
   171  1.1656e-02  1.4973e-02  7.5639e-03  1.3020e+00  1.1627e-02  1.9013e-02  2.0041e-03  0:03:20 1829
   172  1.1555e-02  1.4399e-02  7.5483e-03  1.3855e+00  1.1524e-02  1.8546e-02  1.9303e-03  0:02:40 1828
   173  1.1304e-02  1.3785e-02  7.5909e-03  1.4633e+00  1.1273e-02  1.7939e-02  1.8523e-03  0:08:13 1827
   174  1.0923e-02  1.3246e-02  7.6212e-03  1.5266e+00  1.0892e-02  1.7344e-02  1.7968e-03  0:06:35 1826
   175  1.0410e-02  1.2832e-02  7.6116e-03  1.5756e+00  1.0379e-02  1.6728e-02  1.7421e-03  0:05:15 1825
   176  9.7465e-03  1.2428e-02  7.6102e-03  1.6087e+00  9.7153e-03  1.5740e-02  1.6549e-03  0:04:12 1824

  iter  continuity  x-velocity  y-velocity  z-velocity      energy           k       omega     time/iter
   177  9.1455e-03  1.1927e-02  7.5923e-03  1.6240e+00  9.1152e-03  1.5167e-02  1.5958e-03  0:03:22 1823
   178  8.3085e-03  1.1433e-02  7.5894e-03  1.6212e+00  8.2795e-03  1.4734e-02  1.5417e-03  0:02:41 1822
   179  7.5115e-03  1.0962e-02  7.6186e-03  1.6036e+00  7.4841e-03  1.4474e-02  1.4838e-03  0:02:09 1821
   180  6.9681e-03  1.0568e-02  7.6619e-03  1.5757e+00  6.9429e-03  1.4261e-02  1.4188e-03  0:07:47 1820
   181  6.8078e-03  1.0268e-02  7.7166e-03  1.5389e+00  6.7851e-03  1.3950e-02  1.3630e-03  0:06:13 1819
   182  6.9877e-03  1.0049e-02  7.7710e-03  1.4961e+00  6.9674e-03  1.3564e-02  1.3173e-03  0:04:59 1818
   183  7.3967e-03  9.9310e-03  7.8250e-03  1.4502e+00  7.3785e-03  1.3263e-02  1.2673e-03  0:03:59 1817
   184  7.9360e-03  9.8875e-03  7.8745e-03  1.4058e+00  7.9195e-03  1.2876e-02  1.2336e-03  0:03:11 1816
   185  8.5190e-03  9.9086e-03  7.9162e-03  1.3646e+00  8.5037e-03  1.2520e-02  1.2153e-03  0:02:33 1815
   186  9.0830e-03  9.9878e-03  7.9484e-03  1.3284e+00  9.0686e-03  1.2204e-02  1.2023e-03  0:08:05 1814
   187  9.5354e-03  9.9882e-03  7.9596e-03  1.2965e+00  9.5219e-03  1.1948e-02  1.1907e-03  0:06:28 1813

  iter  continuity  x-velocity  y-velocity  z-velocity      energy           k       omega     time/iter
   188  9.7496e-03  1.0041e-02  7.9610e-03  1.2693e+00  9.7373e-03  1.1895e-02  1.1905e-03  0:05:10 1812
   189  9.7458e-03  1.0154e-02  7.9543e-03  1.2424e+00  9.7348e-03  1.1883e-02  1.2060e-03  0:04:08 1811
   190  9.5671e-03  1.0306e-02  7.9349e-03  1.2121e+00  9.5575e-03  1.1888e-02  1.2202e-03  0:03:18 1810
   191  9.2458e-03  1.0472e-02  7.9002e-03  1.1829e+00  9.2375e-03  1.2029e-02  1.2374e-03  0:02:38 1809
   192  8.8136e-03  1.0646e-02  7.8507e-03  1.1530e+00  8.8066e-03  1.2152e-02  1.2490e-03  0:02:07 1808
   193  8.3108e-03  1.0822e-02  7.7908e-03  1.1163e+00  8.3047e-03  1.2174e-02  1.2522e-03  0:07:43 1807
   194  7.7606e-03  1.0992e-02  7.7180e-03  1.0830e+00  7.7549e-03  1.2269e-02  1.2547e-03  0:06:10 1806
   195  7.2108e-03  1.1138e-02  7.6367e-03  1.0552e+00  7.2049e-03  1.2250e-02  1.2666e-03  0:04:56 1805
   196  6.6921e-03  1.1242e-02  7.5348e-03  1.0253e+00  6.6854e-03  1.2062e-02  1.2788e-03  0:03:57 1804
   197  6.2395e-03  1.1275e-02  7.4106e-03  1.0015e+00  6.2313e-03  1.2075e-02  1.2966e-03  0:03:09 1803
   198  5.9027e-03  1.1318e-02  7.2748e-03  9.8727e-01  5.8922e-03  1.2020e-02  1.2987e-03  0:02:31 1802

  iter  continuity  x-velocity  y-velocity  z-velocity      energy           k       omega     time/iter
   199  5.6878e-03  1.1304e-02  7.0966e-03  9.8510e-01  5.6743e-03  1.2041e-02  1.2844e-03  0:08:01 1801
   200  5.5991e-03  1.1248e-02  6.9203e-03  9.7897e-01  5.5824e-03  1.1971e-02  1.2709e-03  0:06:25 1800
   201  5.6241e-03  1.1138e-02  6.7321e-03  9.7058e-01  5.6041e-03  1.1790e-02  1.2400e-03  0:05:08 1799
   202  5.7437e-03  1.0970e-02  6.5396e-03  9.6102e-01  5.7206e-03  1.1423e-02  1.2163e-03  0:04:06 1798
   203  5.9141e-03  1.0778e-02  6.3473e-03  9.5136e-01  5.8883e-03  1.0881e-02  1.2136e-03  0:03:17 1797
   204  6.1007e-03  1.0595e-02  6.1602e-03  9.4142e-01  6.0725e-03  1.0581e-02  1.2106e-03  0:02:37 1796
   205  6.2695e-03  1.0361e-02  5.9946e-03  9.3501e-01  6.2391e-03  1.0384e-02  1.1928e-03  0:02:06 1795
   206  6.4065e-03  1.0091e-02  5.8514e-03  9.2916e-01  6.3742e-03  1.0264e-02  1.1766e-03  0:07:39 1794
   207  6.4875e-03  9.7944e-03  5.7427e-03  9.2334e-01  6.4535e-03  1.0167e-02  1.1808e-03  0:06:07 1793
   208  6.5030e-03  9.4828e-03  5.6688e-03  9.1807e-01  6.4676e-03  1.0154e-02  1.1693e-03  0:04:54 1792
   209  6.4404e-03  9.1773e-03  5.6275e-03  9.1191e-01  6.4039e-03  1.0058e-02  1.1506e-03  0:03:55 1791

  iter  continuity  x-velocity  y-velocity  z-velocity      energy           k       omega     time/iter
   210  6.2920e-03  8.9006e-03  5.6130e-03  9.0980e-01  6.2546e-03  9.9509e-03  1.1381e-03  0:03:08 1790
   211  6.0582e-03  8.5397e-03  5.6572e-03  9.1020e-01  6.0201e-03  9.8375e-03  1.1340e-03  0:02:30 1789
   212  5.7561e-03  8.2345e-03  5.7186e-03  9.1219e-01  5.7176e-03  9.7583e-03  1.1257e-03  0:02:00 1788
   213  5.3991e-03  7.9879e-03  5.7957e-03  9.1473e-01  5.3605e-03  9.7256e-03  1.1234e-03  0:07:33 1787
   214  4.9999e-03  7.7768e-03  5.8743e-03  9.1195e-01  4.9615e-03  9.7184e-03  1.1103e-03  0:06:02 1786
   215  4.5252e-03  7.6054e-03  5.9176e-03  9.0715e-01  4.4871e-03  9.7482e-03  1.0930e-03  0:04:50 1785
   216  4.0867e-03  7.7427e-03  6.0363e-03  8.9962e-01  4.0499e-03  9.6060e-03  1.0768e-03  0:03:52 1784
   217  3.6904e-03  7.7774e-03  6.1314e-03  8.8834e-01  3.6555e-03  9.3576e-03  1.0571e-03  0:03:05 1783
   218  3.3302e-03  7.6488e-03  6.2028e-03  8.7281e-01  3.2978e-03  9.1490e-03  1.0438e-03  0:02:28 1782
   219  3.0400e-03  7.5053e-03  6.2520e-03  8.5278e-01  3.0112e-03  8.9025e-03  1.0181e-03  0:01:58 1781
   220  2.8633e-03  7.4252e-03  6.2777e-03  8.3328e-01  2.8395e-03  8.6318e-03  9.9054e-04  0:07:31 1780

  iter  continuity  x-velocity  y-velocity  z-velocity      energy           k       omega     time/iter
   221  2.8027e-03  7.4187e-03  6.2830e-03  8.1187e-01  2.7849e-03  8.4051e-03  9.7143e-04  0:06:00 1779
   222  2.8331e-03  7.4577e-03  6.2652e-03  7.9457e-01  2.8212e-03  8.1720e-03  9.5354e-04  0:04:48 1778
   223  2.9342e-03  7.5217e-03  6.2267e-03  7.7369e-01  2.9274e-03  7.9430e-03  9.3703e-04  0:03:50 1777
   224  3.0821e-03  7.5967e-03  6.1676e-03  7.4568e-01  3.0795e-03  7.7556e-03  9.2583e-04  0:08:59 1776
   225  3.2522e-03  7.6759e-03  6.0855e-03  7.1696e-01  3.2525e-03  7.5925e-03  9.1117e-04  0:07:11 1775
   226  3.4262e-03  7.7495e-03  5.9807e-03  6.9085e-01  3.4283e-03  7.4376e-03  9.0439e-04  0:05:45 1774
   227  3.5919e-03  7.8128e-03  5.8541e-03  6.7210e-01  3.5952e-03  7.3396e-03  9.0119e-04  0:04:36 1773
   228  3.7414e-03  7.8630e-03  5.7069e-03  6.6064e-01  3.7451e-03  7.2900e-03  8.8932e-04  0:03:40 1772
   229  3.8682e-03  7.8937e-03  5.5414e-03  6.5704e-01  3.8718e-03  7.3245e-03  8.8792e-04  0:02:56 1771
   230  3.9763e-03  7.8990e-03  5.3598e-03  6.5742e-01  3.9794e-03  7.3925e-03  8.8895e-04  0:08:15 1770
   231  4.0653e-03  7.8663e-03  5.1714e-03  6.6172e-01  4.0676e-03  7.3305e-03  8.8655e-04  0:06:36 1769

  iter  continuity  x-velocity  y-velocity  z-velocity      energy           k       omega     time/iter
   232  4.1410e-03  7.8176e-03  4.9573e-03  6.6683e-01  4.1422e-03  7.2400e-03  8.7504e-04  0:05:16 1768
   233  4.2059e-03  7.7436e-03  4.7270e-03  6.7040e-01  4.2058e-03  7.1873e-03  8.7164e-04  0:04:13 1767
   234  4.2682e-03  7.6395e-03  4.4868e-03  6.7204e-01  4.2666e-03  7.1808e-03  8.6617e-04  0:03:22 1766
   235  4.3306e-03  7.5065e-03  4.2440e-03  6.7094e-01  4.3275e-03  7.1486e-03  8.5716e-04  0:02:42 1765
   236  4.3960e-03  7.3455e-03  4.0058e-03  6.6764e-01  4.3913e-03  7.0475e-03  8.4279e-04  0:02:09 1764
   237  4.4607e-03  7.1607e-03  3.7766e-03  6.6157e-01  4.4544e-03  6.9089e-03  8.3181e-04  0:07:36 1763
   238  4.5206e-03  6.9572e-03  3.5406e-03  6.5307e-01  4.5127e-03  6.7408e-03  8.0955e-04  0:06:05 1762
   239  4.5754e-03  6.7123e-03  3.3502e-03  6.4212e-01  4.5659e-03  6.6014e-03  7.8282e-04  0:04:51 1761
   240  4.6257e-03  6.4287e-03  3.1966e-03  6.2829e-01  4.6147e-03  6.4359e-03  7.5613e-04  0:03:53 1760
   241  4.6667e-03  6.1530e-03  3.0495e-03  6.1165e-01  4.6542e-03  6.2504e-03  7.3217e-04  0:03:06 1759
   242  4.6981e-03  5.8783e-03  2.9283e-03  5.9292e-01  4.6843e-03  6.0758e-03  7.0715e-04  0:02:29 1758

  iter  continuity  x-velocity  y-velocity  z-velocity      energy           k       omega     time/iter
   243  4.7161e-03  5.6021e-03  2.8435e-03  5.7232e-01  4.7009e-03  5.9017e-03  6.8701e-04  0:07:51 1757
   244  4.7197e-03  5.3290e-03  2.7953e-03  5.4839e-01  4.7033e-03  5.7138e-03  6.6468e-04  0:06:16 1756
   245  4.7092e-03  5.0652e-03  2.7808e-03  5.2818e-01  4.6918e-03  5.5146e-03  6.4728e-04  0:05:01 1755
   246  4.6863e-03  4.8160e-03  2.7900e-03  5.0954e-01  4.6678e-03  5.3161e-03  6.2452e-04  0:04:00 1754
   247  4.6509e-03  4.5861e-03  2.8150e-03  4.9186e-01  4.6315e-03  5.1522e-03  6.0802e-04  0:03:12 1753
   248  4.6057e-03  4.3566e-03  2.8512e-03  4.7580e-01  4.5854e-03  4.9942e-03  5.9128e-04  0:02:34 1752
   249  4.5537e-03  4.1123e-03  2.8935e-03  4.6185e-01  4.5325e-03  4.8755e-03  5.7336e-04  0:02:03 1751
   250  4.4968e-03  3.9371e-03  2.9279e-03  4.5081e-01  4.4749e-03  4.7541e-03  5.5953e-04  0:07:28 1750
   251  4.4315e-03  3.7994e-03  2.9655e-03  4.4254e-01  4.4091e-03  4.6316e-03  5.4227e-04  0:05:58 1749
   252  4.3621e-03  3.6907e-03  3.0037e-03  4.3681e-01  4.3390e-03  4.5336e-03  5.3475e-04  0:04:47 1748
   253  4.2943e-03  3.6080e-03  3.0401e-03  4.3356e-01  4.2709e-03  4.4368e-03  5.2191e-04  0:03:49 1747

  iter  continuity  x-velocity  y-velocity  z-velocity      energy           k       omega     time/iter
   254  4.2324e-03  3.5464e-03  3.0726e-03  4.3208e-01  4.2086e-03  4.3373e-03  5.1201e-04  0:03:03 1746
   255  4.1725e-03  3.5009e-03  3.0997e-03  4.3265e-01  4.1485e-03  4.2241e-03  5.0497e-04  0:02:26 1745
   256  4.1157e-03  3.4685e-03  3.1206e-03  4.3500e-01  4.0916e-03  4.1082e-03  5.0159e-04  0:07:46 1744
   257  4.0650e-03  3.4428e-03  3.1359e-03  4.3803e-01  4.0407e-03  3.9892e-03  4.9471e-04  0:06:13 1743
   258  4.0207e-03  3.4281e-03  3.1477e-03  4.4115e-01  3.9965e-03  3.8767e-03  4.8862e-04  0:04:58 1742
   259  3.9822e-03  3.4189e-03  3.1568e-03  4.4335e-01  3.9580e-03  3.7735e-03  4.8139e-04  0:03:58 1741
   260  3.9433e-03  3.4121e-03  3.1653e-03  4.4620e-01  3.9194e-03  3.6830e-03  4.7549e-04  0:03:10 1740
   261  3.9046e-03  3.4071e-03  3.1743e-03  4.4891e-01  3.8808e-03  3.5983e-03  4.7165e-04  0:02:32 1739
   262  3.8769e-03  3.4043e-03  3.1840e-03  4.5192e-01  3.8534e-03  3.5482e-03  4.7626e-04  0:02:02 1738
   263  3.8403e-03  3.4038e-03  3.1941e-03  4.5509e-01  3.8170e-03  3.4785e-03  4.8189e-04  0:07:25 1737
   264  3.8236e-03  3.4042e-03  3.2048e-03  4.5600e-01  3.8007e-03  3.3977e-03  4.8076e-04  0:05:56 1736

  iter  continuity  x-velocity  y-velocity  z-velocity      energy           k       omega     time/iter
   265  3.7830e-03  3.4078e-03  3.2154e-03  4.5415e-01  3.7603e-03  3.2905e-03  4.8618e-04  0:04:44 1735
   266  3.7123e-03  3.4117e-03  3.2280e-03  4.5661e-01  3.6898e-03  3.1722e-03  4.9099e-04  0:03:47 1734
   267  3.6566e-03  3.4178e-03  3.2408e-03  4.6503e-01  3.6344e-03  3.0625e-03  4.9322e-04  0:03:02 1733
   268  3.5752e-03  3.4257e-03  3.2526e-03  4.5607e-01  3.5531e-03  2.9717e-03  5.0074e-04  0:02:25 1732
   269  3.4518e-03  3.4350e-03  3.2625e-03  4.6466e-01  3.4298e-03  2.8898e-03  5.0577e-04  0:07:42 1731
   270  3.3318e-03  3.4455e-03  3.2699e-03  4.8095e-01  3.3099e-03  2.8297e-03  5.0318e-04  0:06:10 1730
   271  3.2098e-03  3.4570e-03  3.2740e-03  4.5838e-01  3.1879e-03  2.7642e-03  5.0636e-04  0:04:56 1729
   272  3.0602e-03  3.4703e-03  3.2739e-03  4.5717e-01  3.0382e-03  2.6994e-03  5.0875e-04  0:03:56 1728
   273  2.9195e-03  3.4825e-03  3.2682e-03  4.7147e-01  2.8974e-03  2.6381e-03  5.0386e-04  0:03:09 1727
   274  2.7845e-03  3.4939e-03  3.2565e-03  4.7146e-01  2.7623e-03  2.5808e-03  5.0327e-04  0:02:31 1726
   275  2.6522e-03  3.5029e-03  3.2381e-03  4.6463e-01  2.6299e-03  2.5293e-03  5.0134e-04  0:07:46 1725

  iter  continuity  x-velocity  y-velocity  z-velocity      energy           k       omega     time/iter
   276  2.5258e-03  3.5111e-03  3.2126e-03  4.5305e-01  2.5034e-03  2.4879e-03  4.9423e-04  0:06:12 1724
   277  2.4118e-03  3.5170e-03  3.1796e-03  4.4058e-01  2.3892e-03  2.4383e-03  4.9524e-04  0:04:58 1723
   278  2.3093e-03  3.5198e-03  3.1389e-03  4.2763e-01  2.2867e-03  2.3767e-03  4.8942e-04  0:03:58 1722
   279  2.2158e-03  3.5182e-03  3.0905e-03  4.1535e-01  2.1932e-03  2.3157e-03  4.8845e-04  0:03:10 1721
   280  2.1290e-03  3.5117e-03  3.0345e-03  4.0750e-01  2.1064e-03  2.2652e-03  4.8029e-04  0:02:32 1720
   281  2.0476e-03  3.4998e-03  2.9712e-03  4.0633e-01  2.0250e-03  2.2258e-03  4.7519e-04  0:02:02 1719
   282  1.9701e-03  3.4817e-03  2.9008e-03  4.1287e-01  1.9475e-03  2.1927e-03  4.6860e-04  0:07:21 1718
   283  1.8954e-03  3.4573e-03  2.8239e-03  4.2765e-01  1.8729e-03  2.1539e-03  4.6252e-04  0:05:53 1717
   284  1.8223e-03  3.4265e-03  2.7409e-03  4.5109e-01  1.7998e-03  2.1117e-03  4.5295e-04  0:04:42 1716
   285  1.7504e-03  3.3892e-03  2.6525e-03  4.8030e-01  1.7279e-03  2.0849e-03  4.4610e-04  0:03:45 1715
   286  1.6808e-03  3.3452e-03  2.5597e-03  5.2334e-01  1.6583e-03  2.0577e-03  4.3831e-04  0:03:00 1714

  iter  continuity  x-velocity  y-velocity  z-velocity      energy           k       omega     time/iter
   287  1.6136e-03  3.2945e-03  2.4632e-03  5.7170e-01  1.5911e-03  2.0281e-03  4.3039e-04  0:02:24 1713
   288  1.5504e-03  3.2378e-03  2.3641e-03  6.3293e-01  1.5279e-03  2.0077e-03  4.2240e-04  0:07:38 1712
   289  1.4922e-03  3.1756e-03  2.2633e-03  6.8717e-01  1.4697e-03  2.0455e-03  5.0443e-04  0:06:06 1711
   290  1.4413e-03  3.1090e-03  2.1622e-03  7.4499e-01  1.4188e-03  2.0100e-03  4.6897e-04  0:04:53 1710
   291  1.3999e-03  3.0387e-03  2.0618e-03  8.0307e-01  1.3775e-03  1.9833e-03  4.4379e-04  0:03:54 1709
   292  1.3694e-03  2.9656e-03  1.9638e-03  8.5712e-01  1.3471e-03  1.9827e-03  4.3434e-04  0:03:07 1708
   293  1.3506e-03  2.8909e-03  1.8693e-03  9.0583e-01  1.3286e-03  2.0004e-03  4.2213e-04  0:02:29 1707
   294  1.3439e-03  2.8159e-03  1.7798e-03  9.4811e-01  1.3222e-03  2.0218e-03  4.1289e-04  0:02:00 1706
   295  1.3490e-03  2.7416e-03  1.6964e-03  9.8073e-01  1.3277e-03  2.0440e-03  4.0540e-04  0:07:17 1705
   296  1.3653e-03  2.6689e-03  1.6205e-03  1.0048e+00  1.3444e-03  2.0811e-03  3.9622e-04  0:05:49 1704
   297  1.3906e-03  2.5983e-03  1.5529e-03  1.0204e+00  1.3703e-03  2.1101e-03  3.8739e-04  0:04:39 1703

  iter  continuity  x-velocity  y-velocity  z-velocity      energy           k       omega     time/iter
   298  1.4227e-03  2.5300e-03  1.4944e-03  1.0282e+00  1.4028e-03  2.1336e-03  3.8180e-04  0:03:43 1702
   299  1.4592e-03  2.4642e-03  1.4453e-03  1.0277e+00  1.4397e-03  2.1555e-03  3.6926e-04  0:02:58 1701
   300  1.4977e-03  2.4003e-03  1.4059e-03  1.0181e+00  1.4786e-03  2.1755e-03  3.6091e-04  0:02:23 1700
   301  1.5363e-03  2.3381e-03  1.3760e-03  1.0023e+00  1.5176e-03  2.1929e-03  3.5812e-04  0:01:54 1699
   302  1.5734e-03  2.2767e-03  1.3551e-03  9.8356e-01  1.5550e-03  2.1993e-03  3.5180e-04  0:07:11 1698
   303  1.6076e-03  2.2153e-03  1.3426e-03  9.6448e-01  1.5894e-03  2.2070e-03  3.4856e-04  0:05:44 1697
   304  1.6378e-03  2.1529e-03  1.3379e-03  9.4496e-01  1.6199e-03  2.2205e-03  3.4850e-04  0:04:35 1696
   305  1.6630e-03  2.0886e-03  1.3401e-03  9.2624e-01  1.6454e-03  2.2294e-03  3.4310e-04  0:03:40 1695
   306  1.6825e-03  2.0217e-03  1.3484e-03  9.1086e-01  1.6651e-03  2.2392e-03  3.3805e-04  0:02:56 1694
   307  1.6954e-03  1.9516e-03  1.3622e-03  9.0122e-01  1.6783e-03  2.2544e-03  3.3624e-04  0:02:21 1693
   308  1.7012e-03  1.8778e-03  1.3807e-03  8.9789e-01  1.6844e-03  2.2706e-03  3.3680e-04  0:07:31 1692

  iter  continuity  x-velocity  y-velocity  z-velocity      energy           k       omega     time/iter
   309  1.6993e-03  1.8006e-03  1.4034e-03  9.0239e-01  1.6829e-03  2.2927e-03  3.3408e-04  0:06:01 1691
   310  1.6890e-03  1.7206e-03  1.4300e-03  9.1798e-01  1.6731e-03  2.3179e-03  3.2994e-04  0:04:48 1690
   311  1.6700e-03  1.6390e-03  1.4601e-03  9.4659e-01  1.6547e-03  2.3399e-03  3.2730e-04  0:03:50 1689
   312  1.6421e-03  1.5582e-03  1.4934e-03  9.8925e-01  1.6274e-03  2.3641e-03  3.2924e-04  0:03:04 1688
   313  1.6051e-03  1.4813e-03  1.5294e-03  1.0535e+00  1.5912e-03  2.3879e-03  3.2811e-04  0:02:27 1687
   314  1.5594e-03  1.4126e-03  1.5678e-03  1.1409e+00  1.5464e-03  2.4099e-03  3.2801e-04  0:07:35 1686
   315  1.5055e-03  1.3570e-03  1.6080e-03  1.2394e+00  1.4935e-03  2.4367e-03  3.3083e-04  0:06:04 1685
   316  1.4444e-03  1.3188e-03  1.6499e-03  1.3333e+00  1.4335e-03  2.4470e-03  3.3339e-04  0:04:51 1684
   317  1.3774e-03  1.3050e-03  1.6922e-03  1.4139e+00  1.3678e-03  2.4777e-03  3.3516e-04  0:03:53 1683
   318  1.3064e-03  1.3199e-03  1.7344e-03  1.4818e+00  1.2982e-03  2.5032e-03  3.3648e-04  0:03:06 1682
   319  1.2340e-03  1.3646e-03  1.7754e-03  1.5396e+00  1.2274e-03  2.5292e-03  3.4001e-04  0:02:29 1681

  iter  continuity  x-velocity  y-velocity  z-velocity      energy           k       omega     time/iter
   320  1.1635e-03  1.4379e-03  1.8147e-03  1.5933e+00  1.1585e-03  2.5654e-03  3.4405e-04  0:01:59 1680
   321  1.0990e-03  1.5362e-03  1.8511e-03  1.6492e+00  1.0957e-03  2.5947e-03  3.4554e-04  0:07:11 1679
   322  1.0449e-03  1.6546e-03  1.8839e-03  1.7095e+00  1.0434e-03  2.6140e-03  3.4513e-04  0:05:44 1678
   323  1.0061e-03  1.7874e-03  1.9121e-03  1.7749e+00  1.0061e-03  2.6293e-03  3.4459e-04  0:04:35 1677
   324  9.8668e-04  1.9298e-03  1.9350e-03  1.8456e+00  9.8799e-04  2.6392e-03  3.4458e-04  0:03:40 1676
   325  9.8913e-04  2.0768e-03  1.9518e-03  1.9209e+00  9.9128e-04  2.6331e-03  3.4489e-04  0:02:56 1675
   326  1.0138e-03  2.2241e-03  1.9620e-03  2.0003e+00  1.0163e-03  2.6153e-03  3.4273e-04  0:02:21 1674
   327  1.0587e-03  2.3675e-03  1.9651e-03  2.0834e+00  1.0610e-03  2.6041e-03  3.3992e-04  0:07:27 1673
   328  1.1202e-03  2.5039e-03  1.9610e-03  2.1689e+00  1.1219e-03  2.5986e-03  3.3830e-04  0:05:57 1672
   329  1.1938e-03  2.6304e-03  1.9498e-03  2.2523e+00  1.1945e-03  2.5957e-03  3.3764e-04  0:04:46 1671
   330  1.2752e-03  2.7445e-03  1.9318e-03  2.3242e+00  1.2746e-03  2.5999e-03  3.3486e-04  0:03:49 1670

  iter  continuity  x-velocity  y-velocity  z-velocity      energy           k       omega     time/iter
   331  1.3600e-03  2.8440e-03  1.9077e-03  2.3878e+00  1.3581e-03  2.5935e-03  3.3163e-04  0:03:03 1669
   332  1.4449e-03  2.9272e-03  1.8784e-03  2.4578e+00  1.4415e-03  2.5975e-03  3.2646e-04  0:02:26 1668
   333  1.5268e-03  2.9925e-03  1.8453e-03  2.5438e+00  1.5219e-03  2.6122e-03  3.1967e-04  0:01:57 1667
   334  1.6035e-03  3.0394e-03  1.8099e-03  2.6565e+00  1.5971e-03  2.6460e-03  3.1405e-04  0:07:07 1666
   335  1.6730e-03  3.0675e-03  1.7742e-03  2.8035e+00  1.6651e-03  2.7458e-03  4.0376e-04  0:05:41 1665
   336  1.7337e-03  3.0768e-03  1.7403e-03  2.9821e+00  1.7244e-03  2.7692e-03  3.6827e-04  0:04:33 1664
   337  1.7844e-03  3.0678e-03  1.7106e-03  3.1901e+00  1.7738e-03  2.7905e-03  3.3733e-04  0:03:38 1663
   338  1.8244e-03  3.0413e-03  1.6874e-03  3.4284e+00  1.8125e-03  2.8087e-03  3.2287e-04  0:02:54 1662
   339  1.8529e-03  2.9988e-03  1.6729e-03  3.6852e+00  1.8398e-03  2.8179e-03  3.1271e-04  0:02:19 1661
   340  1.8695e-03  2.9422e-03  1.6689e-03  3.9506e+00  1.8553e-03  2.8018e-03  3.0131e-04  0:07:23 1660
   341  1.8739e-03  2.8738e-03  1.6765e-03  4.2108e+00  1.8588e-03  2.7885e-03  2.9295e-04  0:05:55 1659

  iter  continuity  x-velocity  y-velocity  z-velocity      energy           k       omega     time/iter
   342  1.8663e-03  2.7963e-03  1.6961e-03  4.4625e+00  1.8505e-03  2.7860e-03  2.8831e-04  0:04:43 1658
   343  1.8469e-03  2.7129e-03  1.7272e-03  4.7035e+00  1.8305e-03  2.7854e-03  2.8483e-04  0:03:47 1657
   344  1.8162e-03  2.6277e-03  1.7685e-03  4.9299e+00  1.7994e-03  2.7865e-03  2.8088e-04  0:03:01 1656
   345  1.7748e-03  2.5415e-03  1.8189e-03  5.1396e+00  1.7576e-03  2.7926e-03  2.7715e-04  0:07:56 1655
   346  1.7232e-03  2.4572e-03  1.8760e-03  5.3298e+00  1.7060e-03  2.8036e-03  2.7394e-04  0:06:20 1654
   347  1.6628e-03  2.3785e-03  1.9371e-03  5.4996e+00  1.6456e-03  2.7987e-03  2.7452e-04  0:05:04 1653
   348  1.5945e-03  2.3085e-03  1.9998e-03  5.6495e+00  1.5777e-03  2.7996e-03  2.7337e-04  0:04:03 1652
   349  1.5201e-03  2.2511e-03  2.0617e-03  5.7844e+00  1.5038e-03  2.8083e-03  2.7395e-04  0:03:14 1651
   350  1.4414e-03  2.2094e-03  2.1197e-03  5.9164e+00  1.4258e-03  2.7938e-03  2.7392e-04  0:02:35 1650
   351  1.3610e-03  2.1898e-03  2.1645e-03  6.0432e+00  1.3465e-03  2.7587e-03  2.7768e-04  0:02:04 1649
   352  1.2797e-03  2.1824e-03  2.2113e-03  6.1635e+00  1.2664e-03  2.7101e-03  2.8081e-04  0:07:09 1648

  iter  continuity  x-velocity  y-velocity  z-velocity      energy           k       omega     time/iter
   353  1.1996e-03  2.1897e-03  2.2508e-03  6.2777e+00  1.1878e-03  2.6575e-03  2.8526e-04  0:05:43 1647
   354  1.1233e-03  2.2102e-03  2.2809e-03  6.3877e+00  1.1132e-03  2.5994e-03  2.8975e-04  0:04:34 1646
   355  1.0532e-03  2.2415e-03  2.3007e-03  6.4973e+00  1.0450e-03  2.5215e-03  2.9436e-04  0:03:39 1645
   356  9.9123e-04  2.2783e-03  2.3102e-03  6.6210e+00  9.8509e-04  2.4413e-03  2.9625e-04  0:02:55 1644
   357  9.3976e-04  2.3182e-03  2.3087e-03  6.7600e+00  9.3574e-04  2.3596e-03  2.9855e-04  0:02:20 1643
   358  9.0065e-04  2.3595e-03  2.2958e-03  6.9253e+00  8.9869e-04  2.2782e-03  2.9911e-04  0:01:52 1642
   359  8.7467e-04  2.3990e-03  2.2715e-03  7.1210e+00  8.7457e-04  2.1887e-03  2.9819e-04  0:06:58 1641
   360  8.6175e-04  2.4343e-03  2.2361e-03  7.3476e+00  8.6320e-04  2.1115e-03  2.9777e-04  0:05:34 1640
   361  8.6062e-04  2.4627e-03  2.1902e-03  7.6122e+00  8.6322e-04  2.0433e-03  2.9832e-04  0:04:27 1639
   362  8.6956e-04  2.4822e-03  2.1345e-03  7.9134e+00  8.7291e-04  1.9802e-03  2.9696e-04  0:03:34 1638
   363  8.8653e-04  2.4912e-03  2.0697e-03  8.2410e+00  8.9023e-04  1.9271e-03  2.9530e-04  0:02:51 1637

  iter  continuity  x-velocity  y-velocity  z-velocity      energy           k       omega     time/iter
   364  9.0904e-04  2.4889e-03  1.9967e-03  8.6004e+00  9.1275e-04  1.8680e-03  2.9351e-04  0:02:16 1636
   365  9.3459e-04  2.4748e-03  1.9168e-03  8.9926e+00  9.3802e-04  1.8064e-03  2.8951e-04  0:07:16 1635
   366  9.6115e-04  2.4487e-03  1.8311e-03  9.4127e+00  9.6410e-04  1.7499e-03  2.8509e-04  0:05:49 1634
   367  9.8666e-04  2.4055e-03  1.7446e-03  9.8382e+00  9.8898e-04  1.6965e-03  2.8216e-04  0:04:39 1633
   368  1.0101e-03  2.3552e-03  1.6515e-03  1.0273e+01  1.0118e-03  1.6515e-03  2.7900e-04  0:03:43 1632
   369  1.0304e-03  2.3003e-03  1.5527e-03  1.0701e+01  1.0313e-03  1.6290e-03  2.7524e-04  0:02:58 1631
   370  1.0463e-03  2.2373e-03  1.4542e-03  1.1111e+01  1.0464e-03  1.6212e-03  2.7115e-04  0:02:22 1630
   371  1.0572e-03  2.1625e-03  1.3608e-03  1.1489e+01  1.0566e-03  1.6073e-03  2.6745e-04  0:01:54 1629
   372  1.0629e-03  2.0706e-03  1.2774e-03  1.1833e+01  1.0617e-03  1.5901e-03  2.6239e-04  0:06:57 1628
   373  1.0629e-03  1.9773e-03  1.1957e-03  1.2129e+01  1.0611e-03  1.5745e-03  2.5833e-04  0:05:33 1627
   374  1.0571e-03  1.8826e-03  1.1199e-03  1.2377e+01  1.0547e-03  1.5566e-03  2.5438e-04  0:04:26 1626

  iter  continuity  x-velocity  y-velocity  z-velocity      energy           k       omega     time/iter
   375  1.0455e-03  1.7873e-03  1.0528e-03  1.2575e+01  1.0425e-03  1.5379e-03  2.4955e-04  0:03:33 1625
   376  1.0278e-03  1.6932e-03  9.9642e-04  1.2710e+01  1.0245e-03  1.5193e-03  2.4378e-04  0:02:50 1624
   377  1.0044e-03  1.6022e-03  9.5197e-04  1.2772e+01  1.0007e-03  1.5076e-03  2.4004e-04  0:02:16 1623
   378  9.7539e-04  1.5167e-03  9.1975e-04  1.2770e+01  9.7142e-04  1.4935e-03  2.3647e-04  0:01:49 1622
   379  9.4122e-04  1.4392e-03  8.9932e-04  1.2698e+01  9.3707e-04  1.4770e-03  2.3274e-04  0:06:51 1621
   380  9.0227e-04  1.3717e-03  8.8955e-04  1.2552e+01  8.9800e-04  1.4628e-03  2.2707e-04  0:05:29 1620
   381  8.5901e-04  1.3163e-03  8.8863e-04  1.2324e+01  8.5470e-04  1.4488e-03  2.2151e-04  0:04:23 1619
   382  8.1225e-04  1.2746e-03  8.9446e-04  1.2009e+01  8.0796e-04  1.4358e-03  2.1597e-04  0:03:30 1618
   383  7.6244e-04  1.2469e-03  9.0497e-04  1.1602e+01  7.5823e-04  1.4168e-03  2.1231e-04  0:02:48 1617
   384  7.1087e-04  1.2331e-03  9.1815e-04  1.1137e+01  7.0680e-04  1.3967e-03  2.0920e-04  0:02:14 1616
   385  6.5862e-04  1.2321e-03  9.3224e-04  1.0648e+01  6.5474e-04  1.3802e-03  2.0683e-04  0:01:47 1615

  iter  continuity  x-velocity  y-velocity  z-velocity      energy           k       omega     time/iter
   386  6.0712e-04  1.2420e-03  9.4582e-04  1.0174e+01  6.0348e-04  1.3612e-03  2.0467e-04  0:06:49 1614
   387  5.5812e-04  1.2605e-03  9.5770e-04  9.7433e+00  5.5477e-04  1.3378e-03  2.0221e-04  0:05:27 1613
   388  5.1339e-04  1.2854e-03  9.6705e-04  9.3493e+00  5.1038e-04  1.3160e-03  1.9994e-04  0:04:21 1612
   389  4.7523e-04  1.3142e-03  9.7325e-04  8.9954e+00  4.7260e-04  1.2946e-03  1.9774e-04  0:03:29 1611
   390  4.4610e-04  1.3448e-03  9.7590e-04  8.6985e+00  4.4387e-04  1.2768e-03  1.9591e-04  0:02:47 1610
   391  4.2815e-04  1.3750e-03  9.7477e-04  8.4637e+00  4.2634e-04  1.2591e-03  1.9481e-04  0:02:13 1609
   392  4.2245e-04  1.4031e-03  9.6977e-04  8.2638e+00  4.2101e-04  1.2472e-03  1.9278e-04  0:01:47 1608
   393  4.2861e-04  1.4279e-03  9.6093e-04  8.0852e+00  4.2750e-04  1.2377e-03  1.9191e-04  0:06:47 1607
   394  4.4475e-04  1.4482e-03  9.4835e-04  7.9273e+00  4.4386e-04  1.2253e-03  1.9169e-04  0:05:25 1606
   395  4.6873e-04  1.4633e-03  9.3220e-04  7.8034e+00  4.6797e-04  1.2113e-03  1.9143e-04  0:04:20 1605
   396  4.9776e-04  1.4724e-03  9.1269e-04  7.6622e+00  4.9706e-04  1.2010e-03  1.9075e-04  0:03:28 1604

  iter  continuity  x-velocity  y-velocity  z-velocity      energy           k       omega     time/iter
   397  5.2925e-04  1.4750e-03  8.9008e-04  7.5217e+00  5.2854e-04  1.1941e-03  1.8975e-04  0:02:46 1603
   398  5.6132e-04  1.4709e-03  8.6471e-04  7.3994e+00  5.6056e-04  1.1872e-03  1.8808e-04  0:02:13 1602
   399  5.9276e-04  1.4602e-03  8.3692e-04  7.3073e+00  5.9191e-04  1.1775e-03  1.8768e-04  0:01:46 1601
   400  6.2224e-04  1.4431e-03  8.0708e-04  7.2487e+00  6.2130e-04  1.1660e-03  1.8730e-04  0:06:45 1600
   401  6.4884e-04  1.4195e-03  7.7558e-04  7.2255e+00  6.4779e-04  1.1551e-03  1.8643e-04  0:05:24 1599
   402  6.7196e-04  1.3899e-03  7.4281e-04  7.2330e+00  6.7081e-04  1.1448e-03  1.8627e-04  0:04:19 1598
   403  6.9120e-04  1.3544e-03  7.0917e-04  7.2680e+00  6.8996e-04  1.1321e-03  1.8621e-04  0:03:27 1597
   404  7.0640e-04  1.3138e-03  6.7511e-04  7.3223e+00  7.0507e-04  1.1240e-03  1.8565e-04  0:02:45 1596
   405  7.1750e-04  1.2686e-03  6.4112e-04  7.3904e+00  7.1609e-04  1.1192e-03  1.8435e-04  0:02:12 1595
   406  7.2458e-04  1.2197e-03  6.0773e-04  7.4690e+00  7.2310e-04  1.1241e-03  1.8324e-04  0:01:46 1594
   407  7.2780e-04  1.1681e-03  5.7545e-04  7.5547e+00  7.2626e-04  1.1287e-03  1.8284e-04  0:06:43 1593

  iter  continuity  x-velocity  y-velocity  z-velocity      energy           k       omega     time/iter
   408  7.2748e-04  1.1149e-03  5.4482e-04  7.6438e+00  7.2589e-04  1.1332e-03  1.8298e-04  0:05:22 1592
   409  7.2403e-04  1.0612e-03  5.1639e-04  7.7337e+00  7.2238e-04  1.1366e-03  1.8225e-04  0:04:18 1591
   410  7.1795e-04  1.0082e-03  4.9065e-04  7.8217e+00  7.1625e-04  1.1452e-03  1.8077e-04  0:03:26 1590
   411  7.0988e-04  9.5721e-04  4.6804e-04  7.9015e+00  7.0812e-04  1.1544e-03  1.7925e-04  0:02:45 1589
   412  7.0055e-04  9.0977e-04  4.4891e-04  7.9743e+00  6.9870e-04  1.1607e-03  1.7742e-04  0:02:12 1588
   413  6.9073e-04  8.6720e-04  4.3352e-04  8.0376e+00  6.8877e-04  1.1642e-03  1.7589e-04  0:01:45 1587
   414  6.8127e-04  8.3110e-04  4.2198e-04  8.0917e+00  6.7916e-04  1.1660e-03  1.7522e-04  0:06:41 1586
   415  6.7301e-04  8.0265e-04  4.1427e-04  8.1335e+00  6.7070e-04  1.1684e-03  1.7470e-04  0:05:21 1585
   416  6.6667e-04  7.8267e-04  4.1020e-04  8.1615e+00  6.6413e-04  1.1710e-03  1.7358e-04  0:04:17 1584
   417  6.6292e-04  7.7147e-04  4.0944e-04  8.1785e+00  6.6008e-04  1.1765e-03  1.7258e-04  0:03:25 1583
   418  6.6232e-04  7.6879e-04  4.1161e-04  8.1875e+00  6.5912e-04  1.1795e-03  1.7122e-04  0:02:44 1582

  iter  continuity  x-velocity  y-velocity  z-velocity      energy           k       omega     time/iter
   419  6.6519e-04  7.7382e-04  4.1628e-04  8.1900e+00  6.6157e-04  1.1843e-03  1.7009e-04  0:02:11 1581
   420  6.7162e-04  7.8521e-04  4.2302e-04  8.1890e+00  6.6755e-04  1.1853e-03  1.6909e-04  0:01:45 1580
   421  6.8148e-04  8.0134e-04  4.3151e-04  8.1861e+00  6.7691e-04  1.2321e-03  2.5407e-04  0:06:40 1579
   422  6.9442e-04  8.2064e-04  4.4149e-04  8.1817e+00  6.8931e-04  1.2041e-03  2.2429e-04  0:05:19 1578
   423  7.0989e-04  8.4150e-04  4.5278e-04  8.1768e+00  7.0422e-04  1.1834e-03  2.0241e-04  0:04:15 1577
   424  7.2723e-04  8.6226e-04  4.6528e-04  8.1696e+00  7.2099e-04  1.1690e-03  1.9281e-04  0:03:24 1576
   425  7.4575e-04  8.8181e-04  4.7900e-04  8.1628e+00  7.3894e-04  1.1517e-03  1.8482e-04  0:02:43 1575
   426  7.6471e-04  8.9908e-04  4.9401e-04  8.1572e+00  7.5734e-04  1.1331e-03  1.7708e-04  0:07:25 1574
   427  7.8338e-04  9.1320e-04  5.1045e-04  8.1519e+00  7.7544e-04  1.1151e-03  1.7103e-04  0:05:56 1573
   428  8.0103e-04  9.2353e-04  5.2846e-04  8.1455e+00  7.9255e-04  1.0953e-03  1.6710e-04  0:04:45 1572
   429  8.1705e-04  9.2963e-04  5.4818e-04  8.1413e+00  8.0805e-04  1.0773e-03  1.6230e-04  0:03:48 1571

  iter  continuity  x-velocity  y-velocity  z-velocity      energy           k       omega     time/iter
   430  8.3086e-04  9.3134e-04  5.6972e-04  8.1374e+00  8.2136e-04  1.0663e-03  1.5767e-04  0:03:02 1570
   431  8.4199e-04  9.2862e-04  5.9316e-04  8.1333e+00  8.3202e-04  1.0539e-03  1.5412e-04  0:02:25 1569
   432  8.5000e-04  9.2146e-04  6.1848e-04  8.1197e+00  8.3961e-04  1.0444e-03  1.5047e-04  0:01:56 1568
   433  8.5458e-04  9.1008e-04  6.4562e-04  8.0906e+00  8.4378e-04  1.0333e-03  1.4710e-04  0:06:46 1567
   434  8.5545e-04  8.9486e-04  6.7441e-04  8.0550e+00  8.4430e-04  1.0216e-03  1.4359e-04  0:05:25 1566
   435  8.5245e-04  8.7637e-04  7.0466e-04  8.0134e+00  8.4099e-04  1.0134e-03  1.3916e-04  0:04:20 1565
   436  8.4552e-04  8.5536e-04  7.3609e-04  7.9688e+00  8.3379e-04  1.0046e-03  1.3443e-04  0:03:28 1564
   437  8.3465e-04  8.3272e-04  7.6837e-04  7.9169e+00  8.2271e-04  9.9604e-04  1.3050e-04  0:02:46 1563
   438  8.1994e-04  8.0957e-04  8.0115e-04  7.8596e+00  8.0784e-04  9.8504e-04  1.2573e-04  0:02:13 1562
   439  8.0156e-04  7.8718e-04  8.3402e-04  7.7978e+00  7.8934e-04  9.7502e-04  1.2111e-04  0:01:46 1561
   440  7.7973e-04  7.6690e-04  8.6657e-04  7.7344e+00  7.6747e-04  9.6318e-04  1.1733e-04  0:06:37 1560

  iter  continuity  x-velocity  y-velocity  z-velocity      energy           k       omega     time/iter
   441  7.5476e-04  7.5023e-04  8.9839e-04  7.6667e+00  7.4253e-04  9.4770e-04  1.1322e-04  0:05:17 1559
   442  7.2701e-04  7.3859e-04  9.2906e-04  7.5941e+00  7.1486e-04  9.3065e-04  1.1016e-04  0:04:14 1558
   443  6.9688e-04  7.3310e-04  9.5814e-04  7.5188e+00  6.8489e-04  9.1889e-04  1.0794e-04  0:03:23 1557
   444  6.6480e-04  7.3454e-04  9.8523e-04  7.4387e+00  6.5304e-04  9.0862e-04  1.0552e-04  0:02:42 1556
   445  6.3127e-04  7.4326e-04  1.0099e-03  7.3585e+00  6.1983e-04  8.9736e-04  1.0269e-04  0:02:10 1555
   446  5.9680e-04  7.5905e-04  1.0319e-03  7.2763e+00  5.8576e-04  8.8513e-04  1.0089e-04  0:01:44 1554
   447  5.6194e-04  7.8125e-04  1.0508e-03  7.1935e+00  5.5139e-04  8.7298e-04  9.9241e-05  0:06:33 1553
   448  5.2724e-04  8.0888e-04  1.0663e-03  7.1101e+00  5.1728e-04  8.6148e-04  9.7126e-05  0:05:15 1552
   449  4.9329e-04  8.4072e-04  1.0781e-03  7.0219e+00  4.8400e-04  8.5016e-04  9.5306e-05  0:04:11 1551
   450  4.6068e-04  8.7547e-04  1.0861e-03  6.9328e+00  4.5218e-04  8.3744e-04  9.5156e-05  0:03:21 1550
   451  4.3002e-04  9.1180e-04  1.0901e-03  6.8478e+00  4.2240e-04  8.2273e-04  9.5968e-05  0:02:41 1549

  iter  continuity  x-velocity  y-velocity  z-velocity      energy           k       omega     time/iter
   452  4.0193e-04  9.4852e-04  1.0901e-03  6.7705e+00  3.9529e-04  8.0830e-04  9.6947e-05  0:02:09 1548
   453  3.7698e-04  9.8452e-04  1.0859e-03  6.7001e+00  3.7140e-04  7.9409e-04  9.7948e-05  0:01:43 1547
   454  3.5566e-04  1.0188e-03  1.0775e-03  6.6389e+00  3.5118e-04  7.7845e-04  9.8948e-05  0:06:31 1546
   455  3.3834e-04  1.0506e-03  1.0652e-03  6.5880e+00  3.3499e-04  7.6600e-04  9.8976e-05  0:05:13 1545
   456  3.2523e-04  1.0791e-03  1.0488e-03  6.5419e+00  3.2297e-04  7.5581e-04  9.9625e-05  0:04:10 1544
   457  3.1628e-04  1.1037e-03  1.0287e-03  6.4980e+00  3.1500e-04  7.4300e-04  1.0017e-04  0:03:20 1543
   458  3.1120e-04  1.1240e-03  1.0050e-03  6.4553e+00  3.1078e-04  7.2837e-04  1.0083e-04  0:02:40 1542
   459  3.0948e-04  1.1395e-03  9.7798e-04  6.4201e+00  3.0975e-04  7.1481e-04  1.0110e-04  0:02:08 1541
   460  3.1048e-04  1.1499e-03  9.4785e-04  6.3866e+00  3.1125e-04  7.0333e-04  1.0087e-04  0:01:42 1540
   461  3.1347e-04  1.1552e-03  9.1497e-04  6.3549e+00  3.1456e-04  6.9195e-04  1.0044e-04  0:06:29 1539
   462  3.1773e-04  1.1552e-03  8.7969e-04  6.3276e+00  3.1899e-04  6.7771e-04  9.9565e-05  0:05:11 1538

  iter  continuity  x-velocity  y-velocity  z-velocity      energy           k       omega     time/iter
   463  3.2260e-04  1.1498e-03  8.4237e-04  6.3053e+00  3.2389e-04  6.6147e-04  9.8841e-05  0:04:09 1537
   464  3.2749e-04  1.1393e-03  8.0343e-04  6.2848e+00  3.2870e-04  6.4514e-04  9.8041e-05  0:03:19 1536
   465  3.3190e-04  1.1237e-03  7.6331e-04  6.2631e+00  3.3296e-04  6.3062e-04  9.7091e-05  0:02:39 1535
   466  3.3542e-04  1.1034e-03  7.2247e-04  6.2447e+00  3.3628e-04  6.1527e-04  9.6111e-05  0:02:07 1534
   467  3.3770e-04  1.0785e-03  6.8141e-04  6.2287e+00  3.3833e-04  6.0094e-04  9.4174e-05  0:01:42 1533
   468  3.3849e-04  1.0495e-03  6.4062e-04  6.2134e+00  3.3887e-04  5.9622e-04  9.2706e-05  0:01:21 1532
   469  3.3757e-04  1.0169e-03  6.0064e-04  6.1955e+00  3.3771e-04  5.9497e-04  9.0288e-05  0:06:11 1531
   470  3.3480e-04  9.8105e-04  5.6200e-04  6.1743e+00  3.3469e-04  5.9544e-04  8.9016e-05  0:04:57 1530
   471  3.3008e-04  9.4267e-04  5.2521e-04  6.1485e+00  3.2975e-04  5.9800e-04  8.8792e-05  0:03:57 1529
   472  3.2338e-04  9.0235e-04  4.9080e-04  6.1169e+00  3.2285e-04  5.9902e-04  8.8161e-05  0:03:10 1528
   473  3.1472e-04  8.6074e-04  4.5926e-04  6.0782e+00  3.1403e-04  6.0133e-04  8.7302e-05  0:02:32 1527

  iter  continuity  x-velocity  y-velocity  z-velocity      energy           k       omega     time/iter
   474  3.0420e-04  8.1857e-04  4.3103e-04  6.0317e+00  3.0337e-04  6.0312e-04  8.5774e-05  0:02:01 1526
   475  2.9196e-04  7.7654e-04  4.0648e-04  5.9795e+00  2.9103e-04  6.0453e-04  8.4535e-05  0:01:37 1525
   476  2.7824e-04  7.3553e-04  3.8584e-04  5.9234e+00  2.7725e-04  6.0800e-04  8.3374e-05  0:06:22 1524
   477  2.6339e-04  6.9637e-04  3.6920e-04  5.8637e+00  2.6236e-04  6.1309e-04  8.2321e-05  0:05:06 1523
   478  2.4786e-04  6.5995e-04  3.5648e-04  5.8004e+00  2.4683e-04  6.1692e-04  8.1163e-05  0:04:04 1522
   479  2.3226e-04  6.2713e-04  3.4740e-04  5.7328e+00  2.3128e-04  6.2111e-04  7.9876e-05  0:03:15 1521
   480  2.1738e-04  5.9870e-04  3.4151e-04  5.6642e+00  2.1646e-04  6.2360e-04  7.8743e-05  0:02:36 1520
   481  2.0417e-04  5.7533e-04  3.3826e-04  5.5962e+00  2.0334e-04  6.2501e-04  7.8017e-05  0:02:05 1519
   482  1.9373e-04  5.5750e-04  3.3706e-04  5.5289e+00  1.9298e-04  6.2595e-04  7.7548e-05  0:01:40 1518
   483  1.8717e-04  5.4537e-04  3.3729e-04  5.4600e+00  1.8651e-04  6.2709e-04  7.6796e-05  0:06:23 1517
   484  1.8537e-04  5.3880e-04  3.3841e-04  5.3897e+00  1.8479e-04  6.2727e-04  7.5931e-05  0:05:06 1516

  iter  continuity  x-velocity  y-velocity  z-velocity      energy           k       omega     time/iter
   485  1.8878e-04  5.3733e-04  3.3994e-04  5.3167e+00  1.8822e-04  6.2592e-04  7.5180e-05  0:04:05 1515
   486  1.9718e-04  5.4027e-04  3.4149e-04  5.2423e+00  1.9659e-04  6.2334e-04  7.4433e-05  0:03:16 1514
   487  2.0983e-04  5.4668e-04  3.4278e-04  5.1666e+00  2.0915e-04  6.1880e-04  7.3957e-05  0:02:37 1513
   488  2.2570e-04  5.5557e-04  3.4360e-04  5.0890e+00  2.2489e-04  6.1182e-04  7.4080e-05  0:02:05 1512
   489  2.4371e-04  5.6595e-04  3.4387e-04  5.0108e+00  2.4273e-04  6.0366e-04  7.4448e-05  0:01:40 1511
   490  2.6291e-04  5.7689e-04  3.4355e-04  4.9300e+00  2.6172e-04  5.9327e-04  7.4849e-05  0:06:22 1510
   491  2.8247e-04  5.8756e-04  3.4269e-04  4.8490e+00  2.8105e-04  5.8134e-04  7.5179e-05  0:05:05 1509
   492  3.0173e-04  5.9726e-04  3.4138e-04  4.7662e+00  3.0005e-04  5.6911e-04  7.5467e-05  0:04:04 1508
   493  3.2015e-04  6.0540e-04  3.3979e-04  4.6811e+00  3.1821e-04  5.5871e-04  7.5760e-05  0:03:15 1507
   494  3.3730e-04  6.1157e-04  3.3809e-04  4.5932e+00  3.3509e-04  5.4976e-04  7.5644e-05  0:02:36 1506
   495  3.5288e-04  6.1545e-04  3.3652e-04  4.5045e+00  3.5039e-04  5.4344e-04  7.5364e-05  0:02:05 1505

  iter  continuity  x-velocity  y-velocity  z-velocity      energy           k       omega     time/iter
   496  3.6664e-04  6.1677e-04  3.3533e-04  4.4143e+00  3.6387e-04  5.3606e-04  7.4802e-05  0:01:40 1504
   497  3.7839e-04  6.1537e-04  3.3475e-04  4.3255e+00  3.7534e-04  5.2816e-04  7.4290e-05  0:06:20 1503
   498  3.8801e-04  6.1118e-04  3.3502e-04  4.2383e+00  3.8469e-04  5.2063e-04  7.3719e-05  0:05:04 1502
   499  3.9541e-04  6.0422e-04  3.3637e-04  4.1521e+00  3.9181e-04  5.1221e-04  7.3213e-05  0:04:03 1501
   500  4.0055e-04  5.9456e-04  3.3900e-04  4.0710e+00  3.9669e-04  5.0423e-04  7.2172e-05  0:03:14 1500
   501  4.0341e-04  5.8236e-04  3.4301e-04  3.9978e+00  3.9930e-04  4.9452e-04  7.1469e-05  0:02:35 1499
   502  4.0401e-04  5.6780e-04  3.4853e-04  3.9322e+00  3.9966e-04  4.8315e-04  7.0353e-05  0:02:04 1498
   503  4.0239e-04  5.5121e-04  3.5556e-04  3.8744e+00  3.9781e-04  4.7112e-04  6.9627e-05  0:01:39 1497
   504  3.9860e-04  5.3297e-04  3.6402e-04  3.8232e+00  3.9381e-04  4.5989e-04  6.8930e-05  0:01:19 1496
   505  3.9272e-04  5.1352e-04  3.7380e-04  3.7779e+00  3.8775e-04  4.4960e-04  6.8060e-05  0:06:02 1495
   506  3.8484e-04  4.9338e-04  3.8472e-04  3.7388e+00  3.7970e-04  4.3963e-04  6.7190e-05  0:04:50 1494

  iter  continuity  x-velocity  y-velocity  z-velocity      energy           k       omega     time/iter
   507  3.7506e-04  4.7316e-04  3.9655e-04  3.7050e+00  3.6977e-04  4.2939e-04  6.6377e-05  0:03:52 1493
   508  3.6347e-04  4.5349e-04  4.0902e-04  3.6771e+00  3.5806e-04  4.1791e-04  6.5571e-05  0:03:05 1492
   509  3.5019e-04  4.3510e-04  4.2191e-04  3.6537e+00  3.4469e-04  4.0634e-04  6.4825e-05  0:02:28 1491
   510  3.3536e-04  4.1876e-04  4.3495e-04  3.6321e+00  3.2978e-04  3.9661e-04  6.4120e-05  0:01:58 1490
   511  3.1909e-04  4.0524e-04  4.4787e-04  3.6122e+00  3.1347e-04  3.8748e-04  6.3145e-05  0:01:35 1489
   512  3.0153e-04  3.9522e-04  4.6041e-04  3.5948e+00  2.9588e-04  3.7837e-04  6.1679e-05  0:06:13 1488
   513  2.8282e-04  3.8923e-04  4.7235e-04  3.5785e+00  2.7717e-04  3.7011e-04  5.9956e-05  0:04:58 1487
   514  2.6313e-04  3.8759e-04  4.8346e-04  3.5627e+00  2.5751e-04  3.6483e-04  5.8751e-05  0:03:59 1486
   515  2.4266e-04  3.9034e-04  4.9354e-04  3.5468e+00  2.3709e-04  3.6127e-04  5.7483e-05  0:03:11 1485
   516  2.2162e-04  3.9726e-04  5.0242e-04  3.5308e+00  2.1612e-04  3.5767e-04  5.6475e-05  0:02:32 1484
   517  2.0027e-04  4.0790e-04  5.0994e-04  3.5129e+00  1.9487e-04  3.5559e-04  5.5717e-05  0:02:02 1483

  iter  continuity  x-velocity  y-velocity  z-velocity      energy           k       omega     time/iter
   518  1.7894e-04  4.2166e-04  5.1597e-04  3.4932e+00  1.7367e-04  3.5400e-04  5.5159e-05  0:01:37 1482
   519  1.5805e-04  4.3781e-04  5.2041e-04  3.4725e+00  1.5295e-04  3.5219e-04  5.4390e-05  0:01:18 1481
   520  1.3818e-04  4.5565e-04  5.2317e-04  3.4513e+00  1.3331e-04  3.5082e-04  5.3552e-05  0:05:58 1480
   521  1.2013e-04  4.7447e-04  5.2419e-04  3.4287e+00  1.1559e-04  3.4856e-04  5.2796e-05  0:04:46 1479
   522  1.0505e-04  4.9364e-04  5.2344e-04  3.4045e+00  1.0100e-04  3.4551e-04  5.2142e-05  0:03:49 1478
   523  9.4381e-05  5.1261e-04  5.2091e-04  3.3793e+00  9.1041e-05  3.4336e-04  5.1308e-05  0:03:03 1477
   524  8.9558e-05  5.3087e-04  5.1659e-04  3.3535e+00  8.7143e-05  3.4139e-04  5.0407e-05  0:02:26 1476
   525  9.1150e-05  5.4800e-04  5.1052e-04  3.3278e+00  8.9721e-05  3.3893e-04  4.9543e-05  0:01:57 1475
   526  9.8346e-05  5.6363e-04  5.0273e-04  3.3016e+00  9.7756e-05  3.3689e-04  4.8840e-05  0:01:34 1474
   527  1.0947e-04  5.7746e-04  4.9330e-04  3.2754e+00  1.0947e-04  3.3546e-04  4.8288e-05  0:01:15 1473
   528  1.2284e-04  5.8924e-04  4.8231e-04  3.2482e+00  1.2322e-04  3.3333e-04  4.7735e-05  0:05:54 1472

  iter  continuity  x-velocity  y-velocity  z-velocity      energy           k       omega     time/iter
   529  1.3718e-04  5.9877e-04  4.6986e-04  3.2200e+00  1.3775e-04  3.2972e-04  4.7214e-05  0:04:43 1471
   530  1.5159e-04  6.0588e-04  4.5606e-04  3.1908e+00  1.5224e-04  3.2442e-04  4.6659e-05  0:03:46 1470
   531  1.6545e-04  6.1047e-04  4.4104e-04  3.1603e+00  1.6611e-04  3.1816e-04  4.6202e-05  0:03:01 1469
   532  1.7833e-04  6.1248e-04  4.2496e-04  3.1278e+00  1.7895e-04  3.1193e-04  4.6011e-05  0:02:25 1468
   533  1.8994e-04  6.1187e-04  4.0796e-04  3.0935e+00  1.9047e-04  3.0718e-04  4.5921e-05  0:01:56 1467
   534  2.0004e-04  6.0865e-04  3.9022e-04  3.0564e+00  2.0048e-04  3.0322e-04  4.5935e-05  0:01:32 1466
   535  2.0849e-04  6.0286e-04  3.7193e-04  3.0187e+00  2.0881e-04  2.9924e-04  4.5751e-05  0:06:07 1465
   536  2.1517e-04  5.9456e-04  3.5328e-04  2.9811e+00  2.1538e-04  2.9520e-04  4.5398e-05  0:04:53 1464
   537  2.2002e-04  5.8387e-04  3.3450e-04  2.9434e+00  2.2010e-04  2.9204e-04  4.5014e-05  0:03:55 1463
   538  2.2301e-04  5.7092e-04  3.1581e-04  2.9059e+00  2.2297e-04  2.9017e-04  4.4550e-05  0:03:07 1462
   539  2.2414e-04  5.5589e-04  2.9747e-04  2.8689e+00  2.2400e-04  2.8810e-04  4.3960e-05  0:02:30 1461

  iter  continuity  x-velocity  y-velocity  z-velocity      energy           k       omega     time/iter
   540  2.2347e-04  5.3900e-04  2.7973e-04  2.8326e+00  2.2322e-04  2.8538e-04  4.3243e-05  0:02:00 1460
   541  2.2107e-04  5.2047e-04  2.6286e-04  2.7963e+00  2.2072e-04  2.8225e-04  4.2510e-05  0:01:36 1459
   542  2.1704e-04  5.0060e-04  2.4716e-04  2.7606e+00  2.1661e-04  2.8097e-04  4.1875e-05  0:01:17 1458
   543  2.1154e-04  4.7969e-04  2.3291e-04  2.7258e+00  2.1104e-04  2.7963e-04  4.1299e-05  0:05:53 1457
   544  2.0474e-04  4.5807e-04  2.2034e-04  2.6919e+00  2.0419e-04  2.7731e-04  4.0826e-05  0:04:42 1456
   545  1.9684e-04  4.3612e-04  2.0969e-04  2.6592e+00  1.9625e-04  2.7433e-04  4.0416e-05  0:03:45 1455
   546  1.8807e-04  4.1423e-04  2.0110e-04  2.6284e+00  1.8745e-04  2.7253e-04  4.0150e-05  0:03:00 1454
   547  1.7869e-04  3.9277e-04  1.9461e-04  2.6000e+00  1.7807e-04  2.7087e-04  3.9929e-05  0:02:24 1453
   548  1.6899e-04  3.7218e-04  1.9017e-04  2.5712e+00  1.6839e-04  2.6855e-04  3.9683e-05  0:01:55 1452
   549  1.5928e-04  3.5287e-04  1.8759e-04  2.5393e+00  1.5871e-04  2.6529e-04  3.9401e-05  0:01:32 1451
   550  1.4990e-04  3.3524e-04  1.8659e-04  2.5095e+00  1.4937e-04  2.6191e-04  3.9472e-05  0:06:04 1450

  iter  continuity  x-velocity  y-velocity  z-velocity      energy           k       omega     time/iter
   551  1.4119e-04  3.1963e-04  1.8685e-04  2.4804e+00  1.4074e-04  2.5859e-04  3.9632e-05  0:04:51 1449
   552  1.3353e-04  3.0632e-04  1.8797e-04  2.4516e+00  1.3316e-04  2.5542e-04  3.9821e-05  0:03:52 1448
   553  1.2725e-04  2.9547e-04  1.8961e-04  2.4231e+00  1.2698e-04  2.5362e-04  4.0073e-05  0:03:06 1447
   554  1.2264e-04  2.8711e-04  1.9141e-04  2.3934e+00  1.2246e-04  2.5290e-04  4.0460e-05  0:02:29 1446
   555  1.1988e-04  2.8115e-04  1.9309e-04  2.3623e+00  1.1979e-04  2.5202e-04  4.0813e-05  0:01:59 1445
   556  1.1901e-04  2.7733e-04  1.9440e-04  2.3303e+00  1.1900e-04  2.5129e-04  4.1303e-05  0:01:35 1444
   557  1.1992e-04  2.7531e-04  1.9514e-04  2.2979e+00  1.1996e-04  2.5159e-04  4.1654e-05  0:06:04 1443
   558  1.2237e-04  2.7464e-04  1.9518e-04  2.2655e+00  1.2244e-04  2.5210e-04  4.1990e-05  0:04:51 1442
   559  1.2603e-04  2.7488e-04  1.9440e-04  2.2331e+00  1.2610e-04  2.5302e-04  4.2192e-05  0:03:53 1441
   560  1.3056e-04  2.7556e-04  1.9275e-04  2.2012e+00  1.3060e-04  2.5323e-04  4.2259e-05  0:03:06 1440
   561  1.3558e-04  2.7626e-04  1.9022e-04  2.1699e+00  1.3558e-04  2.5245e-04  4.2209e-05  0:02:29 1439

  iter  continuity  x-velocity  y-velocity  z-velocity      energy           k       omega     time/iter
   562  1.4078e-04  2.7661e-04  1.8683e-04  2.1391e+00  1.4071e-04  2.5156e-04  4.2048e-05  0:01:59 1438
   563  1.4588e-04  2.7631e-04  1.8264e-04  2.1091e+00  1.4574e-04  2.5111e-04  4.1800e-05  0:01:35 1437
   564  1.5064e-04  2.7511e-04  1.7774e-04  2.0799e+00  1.5041e-04  2.5175e-04  4.1615e-05  0:01:16 1436
   565  1.5486e-04  2.7284e-04  1.7225e-04  2.0514e+00  1.5455e-04  2.5051e-04  4.1328e-05  0:05:48 1435
   566  1.5838e-04  2.6939e-04  1.6631e-04  2.0234e+00  1.5798e-04  2.4869e-04  4.0962e-05  0:04:38 1434
   567  1.6107e-04  2.6471e-04  1.6011e-04  1.9947e+00  1.6059e-04  2.4644e-04  4.0644e-05  0:03:42 1433
   568  1.6284e-04  2.5879e-04  1.5386e-04  1.9661e+00  1.6227e-04  2.4360e-04  4.0283e-05  0:02:58 1432
   569  1.6360e-04  2.5170e-04  1.4778e-04  1.9373e+00  1.6295e-04  2.4000e-04  3.9834e-05  0:02:22 1431
   570  1.6331e-04  2.4355e-04  1.4213e-04  1.9075e+00  1.6258e-04  2.3673e-04  3.9119e-05  0:01:54 1430
   571  1.6192e-04  2.3450e-04  1.3716e-04  1.8764e+00  1.6113e-04  2.3231e-04  3.8367e-05  0:01:31 1429
   572  1.5943e-04  2.2476e-04  1.3309e-04  1.8425e+00  1.5858e-04  2.2776e-04  3.7917e-05  0:05:58 1428

  iter  continuity  x-velocity  y-velocity  z-velocity      energy           k       omega     time/iter
   573  1.5585e-04  2.1460e-04  1.3014e-04  1.8070e+00  1.5494e-04  2.2269e-04  3.7575e-05  0:04:46 1427
   574  1.5120e-04  2.0434e-04  1.2845e-04  1.7703e+00  1.5025e-04  2.1748e-04  3.7243e-05  0:03:49 1426
   575  1.4552e-04  1.9437e-04  1.2806e-04  1.7324e+00  1.4454e-04  2.1212e-04  3.6897e-05  0:03:03 1425
   576  1.3889e-04  1.8510e-04  1.2894e-04  1.6937e+00  1.3788e-04  2.0698e-04  3.6311e-05  0:02:26 1424
   577  1.3137e-04  1.7698e-04  1.3096e-04  1.6541e+00  1.3035e-04  2.0186e-04  3.5725e-05  0:01:57 1423
   578  1.2308e-04  1.7044e-04  1.3393e-04  1.6135e+00  1.2205e-04  1.9891e-04  3.5410e-05  0:01:34 1422
   579  1.1413e-04  1.6587e-04  1.3762e-04  1.5717e+00  1.1311e-04  1.9654e-04  3.5254e-05  0:01:15 1421
   580  1.0468e-04  1.6355e-04  1.4178e-04  1.5289e+00  1.0367e-04  1.9416e-04  3.4995e-05  0:05:44 1420
   581  9.4889e-05  1.6360e-04  1.4615e-04  1.4856e+00  9.3901e-05  1.9292e-04  3.4610e-05  0:04:35 1419
   582  8.4994e-05  1.6594e-04  1.5053e-04  1.4417e+00  8.4041e-05  1.9152e-04  3.4288e-05  0:03:40 1418
   583  7.5263e-05  1.7033e-04  1.5470e-04  1.3979e+00  7.4361e-05  1.8997e-04  3.3949e-05  0:02:56 1417

  iter  continuity  x-velocity  y-velocity  z-velocity      energy           k       omega     time/iter
   584  6.6057e-05  1.7640e-04  1.5851e-04  1.3543e+00  6.5222e-05  1.8908e-04  3.3584e-05  0:02:20 1416
   585  5.7861e-05  1.8371e-04  1.6182e-04  1.3113e+00  5.7118e-05  1.8782e-04  3.3204e-05  0:01:52 1415
   586  5.1308e-05  1.9182e-04  1.6452e-04  1.2692e+00  5.0689e-05  1.8616e-04  3.2814e-05  0:01:30 1414
   587  4.7124e-05  2.0031e-04  1.6654e-04  1.2281e+00  4.6662e-05  1.8481e-04  3.2429e-05  0:01:12 1413
   588  4.5869e-05  2.0882e-04  1.6783e-04  1.1883e+00  4.5579e-05  1.8394e-04  3.2083e-05  0:05:40 1412
   589  4.7580e-05  2.1704e-04  1.6834e-04  1.1492e+00  4.7446e-05  1.8297e-04  3.1751e-05  0:04:32 1411
   590  5.1692e-05  2.2472e-04  1.6808e-04  1.1120e+00  5.1669e-05  1.8145e-04  3.1317e-05  0:03:37 1410
   591  5.7381e-05  2.3164e-04  1.6705e-04  1.0779e+00  5.7421e-05  1.7924e-04  3.0912e-05  0:02:54 1409
   592  6.3904e-05  2.3762e-04  1.6527e-04  1.0479e+00  6.3971e-05  1.7664e-04  3.0573e-05  0:02:19 1408
   593  7.0709e-05  2.4254e-04  1.6277e-04  1.0222e+00  7.0776e-05  1.7308e-04  3.0302e-05  0:01:51 1407
   594  7.7417e-05  2.4629e-04  1.5961e-04  9.9987e-01  7.7468e-05  1.6938e-04  3.0001e-05  0:01:29 1406

  iter  continuity  x-velocity  y-velocity  z-velocity      energy           k       omega     time/iter
   595  8.3773e-05  2.4879e-04  1.5584e-04  9.8076e-01  8.3797e-05  1.6631e-04  2.9747e-05  0:05:52 1405
   596  8.9604e-05  2.5000e-04  1.5152e-04  9.6567e-01  8.9595e-05  1.6350e-04  2.9485e-05  0:04:41 1404
   597  9.4792e-05  2.4991e-04  1.4673e-04  9.5654e-01  9.4747e-05  1.6163e-04  2.9272e-05  0:03:45 1403
   598  9.9257e-05  2.4851e-04  1.4154e-04  9.5481e-01  9.9176e-05  1.5900e-04  2.9066e-05  0:03:00 1402
   599  1.0295e-04  2.4585e-04  1.3604e-04  9.6103e-01  1.0284e-04  1.5735e-04  2.8834e-05  0:02:24 1401
   600  1.0585e-04  2.4196e-04  1.3032e-04  9.7502e-01  1.0570e-04  1.5561e-04  2.8651e-05  0:01:55 1400
   601  1.0794e-04  2.3693e-04  1.2448e-04  9.9550e-01  1.0776e-04  1.5495e-04  2.8605e-05  0:01:32 1399
   602  1.0923e-04  2.3085e-04  1.1862e-04  1.0206e+00  1.0903e-04  1.5473e-04  2.8527e-05  0:01:13 1398
   603  1.0976e-04  2.2384e-04  1.1283e-04  1.0482e+00  1.0953e-04  1.5446e-04  2.8431e-05  0:05:38 1397
   604  1.0955e-04  2.1603e-04  1.0722e-04  1.0764e+00  1.0931e-04  1.5445e-04  2.8337e-05  0:04:30 1396
   605  1.0867e-04  2.0759e-04  1.0190e-04  1.1037e+00  1.0842e-04  1.5437e-04  2.8320e-05  0:03:36 1395

  iter  continuity  x-velocity  y-velocity  z-velocity      energy           k       omega     time/iter
   606  1.0719e-04  1.9871e-04  9.6967e-05  1.1283e+00  1.0692e-04  1.5429e-04  2.8346e-05  0:02:53 1394
   607  1.0519e-04  1.8958e-04  9.2510e-05  1.1489e+00  1.0492e-04  1.5440e-04  2.8367e-05  0:02:18 1393
   608  1.0280e-04  1.8046e-04  8.8608e-05  1.1650e+00  1.0253e-04  1.5418e-04  2.8366e-05  0:01:50 1392
   609  1.0014e-04  1.7157e-04  8.5320e-05  1.1761e+00  9.9859e-05  1.5427e-04  2.8350e-05  0:01:28 1391
   610  9.7357e-05  1.6320e-04  8.2679e-05  1.1824e+00  9.7077e-05  1.5540e-04  2.8375e-05  0:01:11 1390
   611  9.4638e-05  1.5560e-04  8.0690e-05  1.1840e+00  9.4353e-05  1.5668e-04  2.8506e-05  0:05:34 1389
   612  9.2172e-05  1.4904e-04  7.9328e-05  1.1812e+00  9.1876e-05  1.5767e-04  2.8631e-05  0:04:27 1388
   613  9.0158e-05  1.4374e-04  7.8540e-05  1.1751e+00  8.9845e-05  1.5869e-04  2.8726e-05  0:03:34 1387
   614  8.8791e-05  1.3989e-04  7.8254e-05  1.1673e+00  8.8451e-05  1.6036e-04  2.8743e-05  0:02:51 1386
   615  8.8235e-05  1.3756e-04  7.8386e-05  1.1597e+00  8.7857e-05  1.6298e-04  2.8704e-05  0:02:16 1385
   616  8.8604e-05  1.3673e-04  7.8849e-05  1.1546e+00  8.8176e-05  1.6571e-04  2.8718e-05  0:01:49 1384

  iter  continuity  x-velocity  y-velocity  z-velocity      energy           k       omega     time/iter
   617  8.9945e-05  1.3730e-04  7.9563e-05  1.1539e+00  8.9457e-05  1.6932e-04  2.8727e-05  0:01:27 1383
   618  9.2234e-05  1.3905e-04  8.0463e-05  1.1592e+00  9.1674e-05  1.7280e-04  2.8726e-05  0:05:46 1382
   619  9.5378e-05  1.4173e-04  8.1497e-05  1.1712e+00  9.4738e-05  1.7576e-04  2.8680e-05  0:04:37 1381
   620  9.9236e-05  1.4506e-04  8.2637e-05  1.1895e+00  9.8509e-05  1.7790e-04  2.8667e-05  0:03:41 1380
   621  1.0364e-04  1.4874e-04  8.3870e-05  1.2128e+00  1.0282e-04  1.8009e-04  2.8604e-05  0:02:57 1379
   622  1.0840e-04  1.5252e-04  8.5207e-05  1.2399e+00  1.0748e-04  1.8171e-04  2.8503e-05  0:02:21 1378
   623  1.1334e-04  1.5617e-04  8.6668e-05  1.2693e+00  1.1233e-04  1.8384e-04  2.8332e-05  0:06:28 1377
   624  1.1831e-04  1.5948e-04  8.8291e-05  1.2986e+00  1.1720e-04  1.8612e-04  2.8121e-05  0:05:11 1376
[...]
  1838  9.0196e-09  4.9533e-09  4.8328e-09  1.1691e-04  7.7319e-09  5.0887e-09  7.0068e-10  0:00:08  162
  1839  8.9625e-09  4.9585e-09  4.8223e-09  1.1581e-04  7.6784e-09  5.0551e-09  6.9768e-10  0:00:39  161
  1840  8.9047e-09  4.9631e-09  4.8089e-09  1.1472e-04  7.6242e-09  5.0204e-09  6.9473e-10  0:00:31  160
  1841  8.8464e-09  4.9669e-09  4.7923e-09  1.1365e-04  7.5695e-09  4.9855e-09  6.9186e-10  0:00:24  159
  1842  8.7878e-09  4.9697e-09  4.7726e-09  1.1258e-04  7.5144e-09  4.9498e-09  6.8902e-10  0:00:19  158
  1843  8.7291e-09  4.9711e-09  4.7498e-09  1.1153e-04  7.4591e-09  4.9135e-09  6.8623e-10  0:00:15  157
  1844  8.6703e-09  4.9710e-09  4.7239e-09  1.1048e-04  7.4039e-09  4.8767e-09  6.8351e-10  0:00:12  156
  1845  8.6118e-09  4.9691e-09  4.6950e-09  1.0945e-04  7.3489e-09  4.8395e-09  6.8081e-10  0:00:10  155
  1846  8.5536e-09  4.9651e-09  4.6631e-09  1.0844e-04  7.2942e-09  4.8022e-09  6.7817e-10  0:00:39  154
  1847  8.4958e-09  4.9590e-09  4.6284e-09  1.0744e-04  7.2401e-09  4.7647e-09  6.7565e-10  0:00:31  153
  1848  8.4388e-09  4.9506e-09  4.5910e-09  1.0645e-04  7.1867e-09  4.7274e-09  6.7315e-10  0:00:24  152

  iter  continuity  x-velocity  y-velocity  z-velocity      energy           k       omega     time/iter
  1849  8.3825e-09  4.9398e-09  4.5510e-09  1.0547e-04  7.1341e-09  4.6903e-09  6.7065e-10  0:00:19  151
  1850  8.3271e-09  4.9264e-09  4.5086e-09  1.0451e-04  7.0825e-09  4.6535e-09  6.6817e-10  0:00:15  150
  1851  8.2727e-09  4.9104e-09  4.4640e-09  1.0356e-04  7.0321e-09  4.6169e-09  6.6567e-10  0:00:12  149
  1852  8.2196e-09  4.8918e-09  4.4174e-09  1.0263e-04  6.9829e-09  4.5809e-09  6.6316e-10  0:00:10  148
  1853  8.1676e-09  4.8705e-09  4.3690e-09  1.0171e-04  6.9351e-09  4.5457e-09  6.6064e-10  0:00:08  147
  1854  8.1171e-09  4.8465e-09  4.3190e-09  1.0080e-04  6.8887e-09  4.5112e-09  6.5809e-10  0:00:35  146
  1855  8.0679e-09  4.8200e-09  4.2677e-09  9.9911e-05  6.8439e-09  4.4778e-09  6.5550e-10  0:00:28  145
  1856  8.0203e-09  4.7910e-09  4.2153e-09  9.9032e-05  6.8007e-09  4.4449e-09  6.5288e-10  0:00:22  144
  1857  7.9742e-09  4.7596e-09  4.1622e-09  9.8166e-05  6.7591e-09  4.4127e-09  6.5024e-10  0:00:18  143
  1858  7.9297e-09  4.7259e-09  4.1084e-09  9.7313e-05  6.7193e-09  4.3813e-09  6.4757e-10  0:00:14  142
  1859  7.8868e-09  4.6901e-09  4.0544e-09  9.6474e-05  6.6812e-09  4.3506e-09  6.4486e-10  0:00:11  141

  iter  continuity  x-velocity  y-velocity  z-velocity      energy           k       omega     time/iter
  1860  7.8456e-09  4.6522e-09  4.0004e-09  9.5648e-05  6.6449e-09  4.3208e-09  6.4215e-10  0:00:09  140
  1861  7.8061e-09  4.6126e-09  3.9465e-09  9.4835e-05  6.6104e-09  4.2920e-09  6.3942e-10  0:00:35  139
  1862  7.7682e-09  4.5714e-09  3.8932e-09  9.4035e-05  6.5777e-09  4.2643e-09  6.3667e-10  0:00:28  138
  1863  7.7319e-09  4.5288e-09  3.8406e-09  9.3248e-05  6.5467e-09  4.2378e-09  6.3390e-10  0:00:22  137
  1864  7.6973e-09  4.4850e-09  3.7891e-09  9.2474e-05  6.5174e-09  4.2127e-09  6.3113e-10  0:00:17  136
  1865  7.6642e-09  4.4403e-09  3.7387e-09  9.1714e-05  6.4898e-09  4.1887e-09  6.2837e-10  0:00:14  135
  1866  7.6327e-09  4.3949e-09  3.6897e-09  9.0965e-05  6.4638e-09  4.1663e-09  6.2559e-10  0:00:11  134
  1867  7.6026e-09  4.3489e-09  3.6424e-09  9.0230e-05  6.4394e-09  4.1452e-09  6.2280e-10  0:00:09  133
  1868  7.5740e-09  4.3027e-09  3.5969e-09  8.9507e-05  6.4164e-09  4.1253e-09  6.2001e-10  0:00:07  132
  1869  7.5466e-09  4.2564e-09  3.5534e-09  8.8796e-05  6.3948e-09  4.1065e-09  6.1724e-10  0:00:32  131
  1870  7.5205e-09  4.2103e-09  3.5121e-09  8.8098e-05  6.3745e-09  4.0889e-09  6.1445e-10  0:00:25  130

  iter  continuity  x-velocity  y-velocity  z-velocity      energy           k       omega     time/iter
  1871  7.4955e-09  4.1645e-09  3.4730e-09  8.7412e-05  6.3553e-09  4.0726e-09  6.1166e-10  0:00:20  129
  1872  7.4716e-09  4.1193e-09  3.4363e-09  8.6738e-05  6.3373e-09  4.0573e-09  6.0888e-10  0:00:16  128
  1873  7.4486e-09  4.0749e-09  3.4020e-09  8.6075e-05  6.3201e-09  4.0428e-09  6.0610e-10  0:00:13  127
  1874  7.4264e-09  4.0314e-09  3.3703e-09  8.5423e-05  6.3038e-09  4.0295e-09  6.0330e-10  0:00:10  126
  1875  7.4049e-09  3.9890e-09  3.3412e-09  8.4783e-05  6.2881e-09  4.0169e-09  6.0050e-10  0:00:08  125
  1876  7.3839e-09  3.9478e-09  3.3145e-09  8.4154e-05  6.2731e-09  4.0053e-09  5.9769e-10  0:00:06  124
  1877  7.3635e-09  3.9080e-09  3.2905e-09  8.3535e-05  6.2584e-09  3.9942e-09  5.9488e-10  0:00:05  123
  1878  7.3433e-09  3.8696e-09  3.2690e-09  8.2925e-05  6.2440e-09  3.9837e-09  5.9213e-10  0:00:28  122
  1879  7.3234e-09  3.8329e-09  3.2499e-09  8.2326e-05  6.2298e-09  3.9738e-09  5.8943e-10  0:00:23  121
  1880  7.3036e-09  3.7978e-09  3.2333e-09  8.1736e-05  6.2156e-09  3.9642e-09  5.8679e-10  0:00:18  120
  1881  7.2837e-09  3.7644e-09  3.2189e-09  8.1155e-05  6.2013e-09  3.9552e-09  5.8414e-10  0:00:14  119

  iter  continuity  x-velocity  y-velocity  z-velocity      energy           k       omega     time/iter
  1882  7.2637e-09  3.7328e-09  3.2068e-09  8.0583e-05  6.1868e-09  3.9463e-09  5.8152e-10  0:00:11  118
  1883  7.2435e-09  3.7030e-09  3.1966e-09  8.0018e-05  6.1720e-09  3.9377e-09  5.7889e-10  0:00:09  117
  1884  7.2230e-09  3.6750e-09  3.1884e-09  7.9462e-05  6.1568e-09  3.9294e-09  5.7627e-10  0:00:07  116
  1885  7.2020e-09  3.6489e-09  3.1820e-09  7.8913e-05  6.1410e-09  3.9211e-09  5.7368e-10  0:00:06  115
  1886  7.1805e-09  3.6247e-09  3.1771e-09  7.8371e-05  6.1246e-09  3.9128e-09  5.7116e-10  0:00:27  114
  1887  7.1584e-09  3.6022e-09  3.1736e-09  7.7835e-05  6.1075e-09  3.9043e-09  5.6868e-10  0:00:22  113
  1888  7.1357e-09  3.5816e-09  3.1714e-09  7.7306e-05  6.0896e-09  3.8961e-09  5.6624e-10  0:00:17  112
  1889  7.1122e-09  3.5628e-09  3.1702e-09  7.6783e-05  6.0709e-09  3.8874e-09  5.6384e-10  0:00:14  111
  1890  7.0880e-09  3.5457e-09  3.1699e-09  7.6266e-05  6.0514e-09  3.8784e-09  5.6148e-10  0:00:11  110
  1891  7.0630e-09  3.5302e-09  3.1702e-09  7.5754e-05  6.0309e-09  3.8689e-09  5.5916e-10  0:00:09  109
  1892  7.0372e-09  3.5164e-09  3.1711e-09  7.5248e-05  6.0095e-09  3.8589e-09  5.5689e-10  0:00:07  108

  iter  continuity  x-velocity  y-velocity  z-velocity      energy           k       omega     time/iter
  1893  7.0106e-09  3.5040e-09  3.1722e-09  7.4746e-05  5.9871e-09  3.8482e-09  5.5467e-10  0:00:05  107
  1894  6.9831e-09  3.4931e-09  3.1734e-09  7.4250e-05  5.9638e-09  3.8373e-09  5.5249e-10  0:00:25  106
  1895  6.9548e-09  3.4836e-09  3.1746e-09  7.3758e-05  5.9396e-09  3.8259e-09  5.5035e-10  0:00:20  105
  1896  6.9256e-09  3.4752e-09  3.1756e-09  7.3270e-05  5.9144e-09  3.8137e-09  5.4824e-10  0:00:16  104
  1897  6.8956e-09  3.4680e-09  3.1762e-09  7.2787e-05  5.8883e-09  3.8008e-09  5.4615e-10  0:00:13  103
  1898  6.8649e-09  3.4617e-09  3.1762e-09  7.2307e-05  5.8613e-09  3.7870e-09  5.4409e-10  0:00:10  102
  1899  6.8334e-09  3.4563e-09  3.1756e-09  7.1832e-05  5.8336e-09  3.7726e-09  5.4207e-10  0:00:08  101
  1900  6.8013e-09  3.4517e-09  3.1742e-09  7.1361e-05  5.8050e-09  3.7576e-09  5.4009e-10  0:00:06  100
  1901  6.7685e-09  3.4476e-09  3.1719e-09  7.0894e-05  5.7758e-09  3.7420e-09  5.3813e-10  0:00:05   99
  1902  6.7351e-09  3.4440e-09  3.1686e-09  7.0431e-05  5.7459e-09  3.7259e-09  5.3619e-10  0:00:04   98
  1903  6.7012e-09  3.4407e-09  3.1642e-09  6.9972e-05  5.7154e-09  3.7092e-09  5.3429e-10  0:00:23   97

  iter  continuity  x-velocity  y-velocity  z-velocity      energy           k       omega     time/iter
  1904  6.6669e-09  3.4376e-09  3.1586e-09  6.9518e-05  5.6845e-09  3.6917e-09  5.3245e-10  0:00:18   96
  1905  6.6322e-09  3.4345e-09  3.1518e-09  6.9067e-05  5.6531e-09  3.6739e-09  5.3062e-10  0:00:14   95
  1906  6.5971e-09  3.4313e-09  3.1436e-09  6.8621e-05  5.6214e-09  3.6558e-09  5.2883e-10  0:00:11   94
  1907  6.5619e-09  3.4279e-09  3.1342e-09  6.8178e-05  5.5894e-09  3.6372e-09  5.2706e-10  0:00:09   93
  1908  6.5265e-09  3.4241e-09  3.1233e-09  6.7740e-05  5.5573e-09  3.6181e-09  5.2530e-10  0:00:07   92
  1909  6.4911e-09  3.4198e-09  3.1112e-09  6.7306e-05  5.5251e-09  3.5987e-09  5.2355e-10  0:00:06   91
  1910  6.4557e-09  3.4149e-09  3.0976e-09  6.6876e-05  5.4929e-09  3.5791e-09  5.2183e-10  0:00:04   90
  1911  6.4203e-09  3.4093e-09  3.0828e-09  6.6451e-05  5.4608e-09  3.5591e-09  5.2015e-10  0:00:21   89
  1912  6.3851e-09  3.4029e-09  3.0666e-09  6.6030e-05  5.4289e-09  3.5390e-09  5.1847e-10  0:00:17   88
  1913  6.3502e-09  3.3956e-09  3.0491e-09  6.5614e-05  5.3972e-09  3.5188e-09  5.1678e-10  0:00:13   87
  1914  6.3156e-09  3.3873e-09  3.0305e-09  6.5202e-05  5.3659e-09  3.4985e-09  5.1508e-10  0:00:11   86

  iter  continuity  x-velocity  y-velocity  z-velocity      energy           k       omega     time/iter
  1915  6.2813e-09  3.3780e-09  3.0107e-09  6.4795e-05  5.3349e-09  3.4787e-09  5.1336e-10  0:00:08   85
  1916  6.2475e-09  3.3676e-09  2.9898e-09  6.4393e-05  5.3045e-09  3.4587e-09  5.1163e-10  0:00:07   84
  1917  6.2142e-09  3.3561e-09  2.9679e-09  6.3996e-05  5.2746e-09  3.4389e-09  5.0988e-10  0:00:05   83
  1918  6.1815e-09  3.3435e-09  2.9451e-09  6.3605e-05  5.2452e-09  3.4194e-09  5.0811e-10  0:00:04   82
  1919  6.1494e-09  3.3297e-09  2.9215e-09  6.3218e-05  5.2166e-09  3.4004e-09  5.0633e-10  0:00:03   81
  1920  6.1179e-09  3.3147e-09  2.8972e-09  6.2836e-05  5.1886e-09  3.3820e-09  5.0454e-10  0:00:19   80
  1921  6.0871e-09  3.2987e-09  2.8723e-09  6.2460e-05  5.1614e-09  3.3637e-09  5.0272e-10  0:00:15   79
  1922  6.0570e-09  3.2815e-09  2.8469e-09  6.2089e-05  5.1349e-09  3.3458e-09  5.0088e-10  0:00:12   78
  1923  6.0277e-09  3.2633e-09  2.8212e-09  6.1724e-05  5.1093e-09  3.3281e-09  4.9902e-10  0:00:09   77
  1924  5.9992e-09  3.2440e-09  2.7952e-09  6.1364e-05  5.0845e-09  3.3107e-09  4.9714e-10  0:00:07   76
  1925  5.9715e-09  3.2239e-09  2.7692e-09  6.1009e-05  5.0606e-09  3.2937e-09  4.9523e-10  0:00:06   75

  iter  continuity  x-velocity  y-velocity  z-velocity      energy           k       omega     time/iter
  1926  5.9446e-09  3.2028e-09  2.7431e-09  6.0660e-05  5.0375e-09  3.2772e-09  4.9330e-10  0:00:05   74
  1927  5.9185e-09  3.1810e-09  2.7172e-09  6.0316e-05  5.0152e-09  3.2611e-09  4.9134e-10  0:00:04   73
  1928  5.8932e-09  3.1584e-09  2.6916e-09  5.9977e-05  4.9939e-09  3.2454e-09  4.8935e-10  0:00:17   72
  1929  5.8687e-09  3.1353e-09  2.6663e-09  5.9644e-05  4.9733e-09  3.2304e-09  4.8734e-10  0:00:14   71
  1930  5.8450e-09  3.1116e-09  2.6415e-09  5.9316e-05  4.9537e-09  3.2160e-09  4.8531e-10  0:00:11   70
  1931  5.8221e-09  3.0875e-09  2.6173e-09  5.8993e-05  4.9348e-09  3.2021e-09  4.8326e-10  0:00:08   69
  1932  5.7999e-09  3.0630e-09  2.5938e-09  5.8675e-05  4.9167e-09  3.1887e-09  4.8118e-10  0:00:07   68
  1933  5.7784e-09  3.0384e-09  2.5711e-09  5.8362e-05  4.8993e-09  3.1758e-09  4.7910e-10  0:00:05   67
  1934  5.7576e-09  3.0136e-09  2.5493e-09  5.8053e-05  4.8827e-09  3.1634e-09  4.7700e-10  0:00:04   66
  1935  5.7375e-09  2.9889e-09  2.5284e-09  5.7750e-05  4.8667e-09  3.1516e-09  4.7490e-10  0:00:03   65
  1936  5.7179e-09  2.9642e-09  2.5085e-09  5.7451e-05  4.8513e-09  3.1403e-09  4.7277e-10  0:00:03   64

  iter  continuity  x-velocity  y-velocity  z-velocity      energy           k       omega     time/iter
  1937  5.6989e-09  2.9397e-09  2.4897e-09  5.7156e-05  4.8365e-09  3.1295e-09  4.7063e-10  0:00:15   63
  1938  5.6804e-09  2.9154e-09  2.4721e-09  5.6865e-05  4.8222e-09  3.1192e-09  4.6848e-10  0:00:12   62
  1939  5.6624e-09  2.8916e-09  2.4556e-09  5.6579e-05  4.8083e-09  3.1093e-09  4.6631e-10  0:00:09   61
  1940  5.6447e-09  2.8681e-09  2.4403e-09  5.6296e-05  4.7948e-09  3.0998e-09  4.6414e-10  0:00:07   60
  1941  5.6274e-09  2.8452e-09  2.4262e-09  5.6016e-05  4.7816e-09  3.0907e-09  4.6195e-10  0:00:06   59
  1942  5.6103e-09  2.8229e-09  2.4133e-09  5.5740e-05  4.7687e-09  3.0819e-09  4.5976e-10  0:00:04   58
  1943  5.5934e-09  2.8013e-09  2.4016e-09  5.5468e-05  4.7560e-09  3.0735e-09  4.5758e-10  0:00:03   57
  1944  5.5768e-09  2.7803e-09  2.3911e-09  5.5198e-05  4.7434e-09  3.0652e-09  4.5541e-10  0:00:03   56
  1945  5.5602e-09  2.7602e-09  2.3817e-09  5.4931e-05  4.7309e-09  3.0571e-09  4.5325e-10  0:00:13   55
  1946  5.5436e-09  2.7408e-09  2.3735e-09  5.4666e-05  4.7184e-09  3.0492e-09  4.5108e-10  0:00:10   54
  1947  5.5271e-09  2.7222e-09  2.3663e-09  5.4404e-05  4.7058e-09  3.0414e-09  4.4891e-10  0:00:08   53

  iter  continuity  x-velocity  y-velocity  z-velocity      energy           k       omega     time/iter
  1948  5.5104e-09  2.7046e-09  2.3601e-09  5.4144e-05  4.6931e-09  3.0336e-09  4.4675e-10  0:00:06   52
  1949  5.4937e-09  2.6878e-09  2.3549e-09  5.3886e-05  4.6803e-09  3.0259e-09  4.4462e-10  0:00:05   51
  1950  5.4767e-09  2.6719e-09  2.3506e-09  5.3630e-05  4.6672e-09  3.0182e-09  4.4250e-10  0:00:04   50
  1951  5.4596e-09  2.6569e-09  2.3470e-09  5.3375e-05  4.6538e-09  3.0104e-09  4.4039e-10  0:00:03   49
  1952  5.4422e-09  2.6428e-09  2.3442e-09  5.3122e-05  4.6402e-09  3.0027e-09  4.3830e-10  0:00:02   48
  1953  5.4245e-09  2.6296e-09  2.3421e-09  5.2870e-05  4.6261e-09  2.9949e-09  4.3623e-10  0:00:02   47
  1954  5.4065e-09  2.6173e-09  2.3404e-09  5.2619e-05  4.6117e-09  2.9868e-09  4.3417e-10  0:00:11   46
  1955  5.3881e-09  2.6059e-09  2.3392e-09  5.2369e-05  4.5969e-09  2.9786e-09  4.3213e-10  0:00:08   45
  1956  5.3693e-09  2.5953e-09  2.3384e-09  5.2120e-05  4.5816e-09  2.9700e-09  4.3010e-10  0:00:07   44
  1957  5.3502e-09  2.5855e-09  2.3379e-09  5.1872e-05  4.5659e-09  2.9612e-09  4.2808e-10  0:00:05   43
  1958  5.3306e-09  2.5765e-09  2.3375e-09  5.1624e-05  4.5496e-09  2.9524e-09  4.2608e-10  0:00:04   42

  iter  continuity  x-velocity  y-velocity  z-velocity      energy           k       omega     time/iter
  1959  5.3106e-09  2.5682e-09  2.3372e-09  5.1378e-05  4.5329e-09  2.9432e-09  4.2411e-10  0:00:03   41
  1960  5.2901e-09  2.5606e-09  2.3369e-09  5.1132e-05  4.5157e-09  2.9338e-09  4.2215e-10  0:00:02   40
  1961  5.2692e-09  2.5537e-09  2.3365e-09  5.0887e-05  4.4980e-09  2.9241e-09  4.2020e-10  0:00:10   39
  1962  5.2479e-09  2.5474e-09  2.3359e-09  5.0643e-05  4.4798e-09  2.9139e-09  4.1827e-10  0:00:08   38
  1963  5.2262e-09  2.5415e-09  2.3351e-09  5.0399e-05  4.4612e-09  2.9034e-09  4.1638e-10  0:00:06   37
  1964  5.2041e-09  2.5362e-09  2.3340e-09  5.0156e-05  4.4420e-09  2.8925e-09  4.1450e-10  0:00:05   36
  1965  5.1816e-09  2.5312e-09  2.3324e-09  4.9915e-05  4.4225e-09  2.8812e-09  4.1264e-10  0:00:04   35
  1966  5.1587e-09  2.5266e-09  2.3304e-09  4.9674e-05  4.4025e-09  2.8696e-09  4.1080e-10  0:00:03   34
  1967  5.1354e-09  2.5223e-09  2.3278e-09  4.9435e-05  4.3821e-09  2.8576e-09  4.0897e-10  0:00:02   33
  1968  5.1119e-09  2.5182e-09  2.3247e-09  4.9197e-05  4.3614e-09  2.8453e-09  4.0716e-10  0:00:02   32
  1969  5.0880e-09  2.5142e-09  2.3209e-09  4.8961e-05  4.3404e-09  2.8328e-09  4.0536e-10  0:00:07   31

  iter  continuity  x-velocity  y-velocity  z-velocity      energy           k       omega     time/iter
  1970  5.0640e-09  2.5102e-09  2.3165e-09  4.8727e-05  4.3191e-09  2.8201e-09  4.0357e-10  0:00:06   30
  1971  5.0396e-09  2.5063e-09  2.3113e-09  4.8495e-05  4.2975e-09  2.8071e-09  4.0180e-10  0:00:04   29
  1972  5.0151e-09  2.5023e-09  2.3055e-09  4.8265e-05  4.2757e-09  2.7938e-09  4.0006e-10  0:00:03   28
  1973  4.9905e-09  2.4982e-09  2.2989e-09  4.8038e-05  4.2538e-09  2.7804e-09  3.9833e-10  0:00:03   27
  1974  4.9657e-09  2.4938e-09  2.2915e-09  4.7813e-05  4.2317e-09  2.7669e-09  3.9663e-10  0:00:02   26
  1975  4.9409e-09  2.4892e-09  2.2833e-09  4.7592e-05  4.2095e-09  2.7532e-09  3.9492e-10  0:00:02   25
  1976  4.9161e-09  2.4843e-09  2.2744e-09  4.7373e-05  4.1873e-09  2.7392e-09  3.9323e-10  0:00:06   24
  1977  4.8912e-09  2.4790e-09  2.2648e-09  4.7158e-05  4.1651e-09  2.7252e-09  3.9154e-10  0:00:05   23
  1978  4.8665e-09  2.4734e-09  2.2543e-09  4.6947e-05  4.1430e-09  2.7112e-09  3.8985e-10  0:00:04   22
  1979  4.8418e-09  2.4672e-09  2.2432e-09  4.6738e-05  4.1209e-09  2.6971e-09  3.8817e-10  0:00:03   21
  1980  4.8172e-09  2.4606e-09  2.2314e-09  4.6533e-05  4.0990e-09  2.6830e-09  3.8648e-10  0:00:02   20

  iter  continuity  x-velocity  y-velocity  z-velocity      energy           k       omega     time/iter
  1981  4.7928e-09  2.4534e-09  2.2189e-09  4.6331e-05  4.0772e-09  2.6690e-09  3.8480e-10  0:00:02   19
  1982  4.7685e-09  2.4457e-09  2.2057e-09  4.6132e-05  4.0557e-09  2.6549e-09  3.8312e-10  0:00:01   18
  1983  4.7445e-09  2.4375e-09  2.1920e-09  4.5936e-05  4.0344e-09  2.6409e-09  3.8143e-10  0:00:01   17
  1984  4.7208e-09  2.4286e-09  2.1777e-09  4.5743e-05  4.0133e-09  2.6269e-09  3.7974e-10  0:00:04   16
  1985  4.6973e-09  2.4192e-09  2.1629e-09  4.5553e-05  3.9925e-09  2.6129e-09  3.7805e-10  0:00:03   15
  1986  4.6741e-09  2.4092e-09  2.1477e-09  4.5366e-05  3.9721e-09  2.5990e-09  3.7635e-10  0:00:02   14
  1987  4.6513e-09  2.3986e-09  2.1321e-09  4.5181e-05  3.9520e-09  2.5852e-09  3.7466e-10  0:00:02   13
  1988  4.6288e-09  2.3874e-09  2.1162e-09  4.4998e-05  3.9322e-09  2.5716e-09  3.7296e-10  0:00:01   12
  1989  4.6067e-09  2.3757e-09  2.1000e-09  4.4818e-05  3.9129e-09  2.5580e-09  3.7127e-10  0:00:01   11
  1990  4.5849e-09  2.3635e-09  2.0837e-09  4.4640e-05  3.8939e-09  2.5446e-09  3.6957e-10  0:00:01   10
  1991  4.5635e-09  2.3507e-09  2.0671e-09  4.4464e-05  3.8754e-09  2.5313e-09  3.6787e-10  0:00:00    9

  iter  continuity  x-velocity  y-velocity  z-velocity      energy           k       omega     time/iter
  1992  4.5425e-09  2.3375e-09  2.0505e-09  4.4290e-05  3.8572e-09  2.5183e-09  3.6617e-10  0:00:02    8
  1993  4.5220e-09  2.3239e-09  2.0339e-09  4.4118e-05  3.8395e-09  2.5054e-09  3.6446e-10  0:00:01    7
  1994  4.5018e-09  2.3098e-09  2.0174e-09  4.3948e-05  3.8222e-09  2.4928e-09  3.6275e-10  0:00:01    6
  1995  4.4820e-09  2.2954e-09  2.0009e-09  4.3781e-05  3.8053e-09  2.4803e-09  3.6104e-10  0:00:01    5
  1996  4.4626e-09  2.2807e-09  1.9846e-09  4.3615e-05  3.7888e-09  2.4681e-09  3.5932e-10  0:00:00    4
  1997  4.4436e-09  2.2657e-09  1.9685e-09  4.3451e-05  3.7727e-09  2.4562e-09  3.5760e-10  0:00:00    3
  1998  4.4250e-09  2.2506e-09  1.9527e-09  4.3288e-05  3.7570e-09  2.4446e-09  3.5588e-10  0:00:00    2
  1999  4.4067e-09  2.2352e-09  1.9373e-09  4.3128e-05  3.7417e-09  2.4332e-09  3.5416e-10  0:00:00    1
  2000  4.3888e-09  2.2198e-09  1.9221e-09  4.2969e-05  3.7268e-09  2.4220e-09  3.5244e-10  0:00:00    0

> 
adjoint/                parallel/               server/
define/                 parametric-study/       solve/
display/                plot/                   surface/
exit                    preferences/            turbo-workflow/
file/                   print-license-usage     views/
mesh/                   report/

> /file/write-case-data project1
Fast-loading "C:\PROGRA~1\ANSYSI~1\v231\fluent\fluent23.1.0\\addons\afd\lib\hdfio.bin"
Done.

Writing to Engs-30669:"C:\Users\kebl7595\Desktop\CFD\Runs\Viscous\24 degree\project1.cas.h5" in NODE0 mode and compression level 1 ...
       12996 cells,     1 zone  ...
       43722 faces,     8 zones ...
       17864 nodes,     1 zone  ...
  Done.
Done.

Writing to Engs-30669:"C:\Users\kebl7595\Desktop\CFD\Runs\Viscous\24 degree\project1.dat.h5" in NODE0 mode and compression level 1 ...
  Writing results.
Done.

> /file/export/ascii "./surface.dat" wing te () no pressure mach-number quit no

Writing "./surface.dat"...

Writing information to ascii file ...
Done.


> /report/forces/wall-forces y -0.40674 0.91355 0 y "Lift"

> /report/forces/wall-forces y 0.91355 0.40674 0 y "Drag"

> /exit

Posting ANSYS Product Improvement Program performance data 
Done.
Auto-Transcript Stop Time:  10:50:22, 21 May 2024 GMT Daylight Time 
Total Transcript Time: 5 Minute 44 Second.
