Auto-Transcript Start Time:  10:43:31, 21 May 2024 GMT Daylight Time 
Current Directory: "C:\Users\kebl7595\Desktop\CFD\Runs\Viscous\12 degrees"

              Welcome to ANSYS Fluent 2023 R1

              Copyright 1987-2023 ANSYS, Inc. All Rights Reserved.
              Unauthorized use, distribution or duplication is prohibited.
              This product is subject to U.S. laws governing export and re-export.
              For full Legal Notice, see documentation.

Build Time: Nov 28 2022 09:52:02 EST  Build Id: 10208  
 
Connected License Server List:	1055@ansyslic.eng.ox.ac.uk

*********************************************
Info: Your license enables 4-way parallel execution.
For faster simulations, please start the application with the appropriate parallel options.
*********************************************


     --------------------------------------------------------------
     This is an academic version of ANSYS FLUENT. Usage of this product
     license is limited to the terms and conditions specified in your ANSYS
     license form, additional terms section.
     --------------------------------------------------------------
Host spawning Node 0 on machine "Engs-30669" (win64).

------------------------------------------------------------------------------------
ID    Hostname    Core  O.S.         PID    Vendor                                 
------------------------------------------------------------------------------------
n0    Engs-30669  1/32  Windows-x64  20248  13th Gen Intel(R) Core(TM) i9-13900    
host  Engs-30669        Windows-x64  46876  13th Gen Intel(R) Core(TM) i9-13900    

MPI Option Selected: intel
------------------------------------------------------------------------------------

Cleanup script file is C:\\Users\\kebl7595\\Desktop\\CFD\\Runs\\Viscous\\12 degrees\\cleanup-fluent-Engs-30669-46876.bat
QA Service Message :
QA Services Agreement Enabled. This application is included in the scope of an ANSYS QA Services Agreement.
Posting ANSYS Product Improvement Program startup data
Done.

Reading journal file C:/Users/kebl7595/Desktop/CFD/Runs/Viscous/12 degrees/project1.jou...

> /file/set-batch-options no no no 

> 
define/                 parametric-study/       solve/
display/                plot/                   surface/
exit                    preferences/            switch-to-meshing-mode
file/                   print-license-usage     turbo-workflow/
mesh/                   report/                 views/
parallel/               server/

> /file/import/cgns/mesh  "./project1.cgns"
Engs-30669 has other FLUENT parallel processes running.                       Process affinity not being set.

Importing "./project1.cgns"

Opening library "C:\\PROGRA~1\\ANSYSI~1\\v231\\fluent\\fluent23.1.0\\vki\\win64\\devtools4.4.6.dll"... done.

Read    17864 nodes
   12996 hexahedral cells, zone  1
    9462 quadrilateral wall faces, zone  2.
   33972 quadrilateral interior faces, zone  3.
     282 quadrilateral interface faces, zone  4.
       6 quadrilateral wall faces, zone  5.

Building...
     mesh
     materials,
     interface,
     domains,
     zones,
	default_exterior-1
	interface-default_subface
	default_interior-1
	default_subface
	default
     parallel,
The automatic selection for flux type has changed to Rhie-Chow: momentum based.

Done.


> 
adjoint/                parallel/               server/
define/                 parametric-study/       solve/
display/                plot/                   surface/
exit                    preferences/            turbo-workflow/
file/                   print-license-usage     views/
mesh/                   report/

> /define/models/solver/density-based-implicit yes

> 
adjoint/                parallel/               server/
define/                 parametric-study/       solve/
display/                plot/                   surface/
exit                    preferences/            turbo-workflow/
file/                   print-license-usage     views/
mesh/                   report/

> /define/models/energy? yes yes invalid command [yes]
yes

> /define/models/viscous/kw-standard? yes

> 
adjoint/                parallel/               server/
define/                 parametric-study/       solve/
display/                plot/                   surface/
exit                    preferences/            turbo-workflow/
file/                   print-license-usage     views/
mesh/                   report/

> /define/materials/change-create air air air is a fluid
yes 
Density
ideal-gas no data required.

no no no no no no

> 
adjoint/                parallel/               server/
define/                 parametric-study/       solve/
display/                plot/                   surface/
exit                    preferences/            turbo-workflow/
file/                   print-license-usage     views/
mesh/                   report/

> /mesh/modify-zones/sep-face-zone-angle 2 90 yes

 4332 faces in contiguous region 0
 228 faces in contiguous region 1
 342 faces in contiguous region 2
 4332 faces in contiguous region 3
 228 faces in contiguous region 4
 Separates zone 2 into 5 zone(s).
Updating new zone information...
   created new zone default_subface:010 from default_subface
   created new zone default_subface:009 from default_subface
   created new zone default_subface:008 from default_subface
   created new zone default_subface:007 from default_subface
done.

> 
adjoint/                parallel/               server/
define/                 parametric-study/       solve/
display/                plot/                   surface/
exit                    preferences/            turbo-workflow/
file/                   print-license-usage     views/
mesh/                   report/

> /define/boundary-conditions/zone-name  5   te

> /define/boundary-conditions/zone-name  7 wing

> /define/boundary-conditions/zone-name  2 sym1

> /define/boundary-conditions/zone-name  9 sym2

> 
adjoint/                parallel/               server/
define/                 parametric-study/       solve/
display/                plot/                   surface/
exit                    preferences/            turbo-workflow/
file/                   print-license-usage     views/
mesh/                   report/

> /define/boundary-conditions/zone-name  8 far1

> /define/boundary-conditions/zone-name 10 far2

> 
adjoint/                parallel/               server/
define/                 parametric-study/       solve/
display/                plot/                   surface/
exit                    preferences/            turbo-workflow/
file/                   print-license-usage     views/
mesh/                   report/

> /define/boundary-conditions/zone-type  8 pressure-far-field

> /define/boundary-conditions/zone-type 10 pressure-far-field

> /define/boundary-conditions/zone-type  2 symmetry

> /define/boundary-conditions/zone-type  9 symmetry

> 
adjoint/                parallel/               server/
define/                 parametric-study/       solve/
display/                plot/                   surface/
exit                    preferences/            turbo-workflow/
file/                   print-license-usage     views/
mesh/                   report/

> /define/boundary-conditions/pressure-far-field (far2 far1)
far1 no 0 no 0.1 no 300 yes no 0.97815 no 0.20791 no 0. no yes 5 0.02

> /define/boundary-conditions/pressure-far-field (far2 far1)
far2 no 0 no 0.1 no 300 yes no 0.97815 no 0.20791 no 0. no yes 5 0.02

> 
adjoint/                parallel/               server/
define/                 parametric-study/       solve/
display/                plot/                   surface/
exit                    preferences/            turbo-workflow/
file/                   print-license-usage     views/
mesh/                   report/

> /solve/initialize/compute-defaults/pressure-far-field (far2 far1)
far1

> /solve/initialize/initialize-flow

> 
adjoint/                parallel/               server/
define/                 parametric-study/       solve/
display/                plot/                   surface/
exit                    preferences/            turbo-workflow/
file/                   print-license-usage     views/
mesh/                   report/

> /solve/monitors/residual/convergence-criteria 1.e-9 1.e-9 1.e-9 1.e-9 1.e-9 1.e-9 1.e-9

> /solve/iterate 2000

  iter  continuity  x-velocity  y-velocity  z-velocity      energy           k       omega     time/iter
     1  1.0000e+00  1.0000e+00  1.0000e+00  1.0000e+00  1.0000e+00  1.7586e-01  1.3025e-01  0:00:00 1999
     2  5.1023e-01  4.1235e-01  4.4391e-01  1.0000e+00  5.1080e-01  1.3327e-01  1.0302e-01  0:33:18 1998
     3  2.8521e-01  2.0493e-01  2.2702e-01  9.8609e-01  2.8543e-01  1.0452e-01  8.4245e-02  0:26:38 1997
     4  1.8165e-01  1.4261e-01  1.4309e-01  7.1009e-01  1.8170e-01  8.5119e-02  7.0374e-02  0:21:17 1996
     5  1.3150e-01  1.1476e-01  9.8381e-02  6.1818e-01  1.3151e-01  7.2232e-02  6.0173e-02  0:17:01 1995
     6  1.0566e-01  8.5655e-02  7.0023e-02  7.2198e-01  1.0570e-01  6.2373e-02  5.2757e-02  0:13:37 1994
     7  9.0144e-02  6.5124e-02  5.1856e-02  7.2357e-01  9.0218e-02  5.4431e-02  4.6840e-02  0:10:53 1993
     8  7.8621e-02  5.1654e-02  4.0490e-02  6.8711e-01  7.8717e-02  4.7936e-02  4.1904e-02  0:08:42 1992
     9  6.9703e-02  4.2894e-02  3.3322e-02  6.5916e-01  6.9808e-02  4.2603e-02  3.7739e-02  0:06:58 1991
    10  6.2841e-02  3.7338e-02  2.8531e-02  6.1646e-01  6.2944e-02  3.8228e-02  3.4203e-02  0:05:34 1990
    11  5.7752e-02  3.4403e-02  2.5080e-02  5.7134e-01  5.7848e-02  3.4631e-02  3.1178e-02  0:11:05 1989

  iter  continuity  x-velocity  y-velocity  z-velocity      energy           k       omega     time/iter
    12  5.4234e-02  3.3201e-02  2.2472e-02  5.3008e-01  5.4320e-02  3.1623e-02  2.8594e-02  0:08:52 1988
    13  5.2135e-02  3.3268e-02  2.0459e-02  5.1076e-01  5.2211e-02  2.9059e-02  2.6379e-02  0:07:05 1987
    14  5.1251e-02  3.4036e-02  1.8988e-02  5.1191e-01  5.1316e-02  2.6861e-02  2.4439e-02  0:05:40 1986
    15  5.1362e-02  3.5249e-02  1.7957e-02  5.3089e-01  5.1419e-02  2.4964e-02  2.2732e-02  0:04:32 1985
    16  5.2224e-02  3.6729e-02  1.7373e-02  5.6147e-01  5.2272e-02  2.3317e-02  2.1231e-02  0:03:37 1984
    17  5.3615e-02  3.8377e-02  1.7184e-02  6.1279e-01  5.3654e-02  2.1854e-02  1.9893e-02  0:02:54 1983
    18  5.5337e-02  4.0158e-02  1.7271e-02  6.6056e-01  5.5366e-02  2.0549e-02  1.8693e-02  0:08:55 1982
    19  5.7229e-02  4.2066e-02  1.7447e-02  7.1683e-01  5.7248e-02  1.9386e-02  1.7609e-02  0:07:08 1981
    20  5.9166e-02  4.3906e-02  1.7850e-02  7.8190e-01  5.9174e-02  1.8334e-02  1.6631e-02  0:05:42 1980
    21  6.0985e-02  4.5531e-02  1.8353e-02  8.5330e-01  6.0980e-02  1.7378e-02  1.5742e-02  0:04:34 1979
    22  6.2581e-02  4.6920e-02  1.9047e-02  9.2481e-01  6.2563e-02  1.6520e-02  1.4936e-02  0:03:39 1978

  iter  continuity  x-velocity  y-velocity  z-velocity      energy           k       omega     time/iter
    23  6.3848e-02  4.7945e-02  1.9866e-02  9.9084e-01  6.3814e-02  1.5731e-02  1.4204e-02  0:02:55 1977
    24  6.4694e-02  4.8598e-02  2.0719e-02  1.0458e+00  6.4644e-02  1.5002e-02  1.3539e-02  0:02:20 1976
    25  6.5055e-02  4.8785e-02  2.1526e-02  1.0845e+00  6.4988e-02  1.4320e-02  1.2918e-02  0:01:52 1975
    26  6.4889e-02  4.8457e-02  2.2160e-02  1.1031e+00  6.4804e-02  1.3683e-02  1.2340e-02  0:01:29 1974
    27  6.4207e-02  4.7738e-02  2.2709e-02  1.0990e+00  6.4104e-02  1.3093e-02  1.1806e-02  0:07:46 1973
    28  6.3027e-02  4.6868e-02  2.3080e-02  1.0711e+00  6.2907e-02  1.2541e-02  1.1305e-02  0:06:13 1972
    29  6.1380e-02  4.5930e-02  2.3215e-02  1.0241e+00  6.1243e-02  1.2026e-02  1.0839e-02  0:04:58 1971
    30  5.9280e-02  4.4793e-02  2.3229e-02  9.5877e-01  5.9128e-02  1.1541e-02  1.0394e-02  0:03:58 1970
    31  5.6792e-02  4.3591e-02  2.3191e-02  8.7993e-01  5.6626e-02  1.1090e-02  9.9795e-03  0:03:11 1969
    32  5.3959e-02  4.2266e-02  2.3102e-02  7.9654e-01  5.3781e-02  1.0670e-02  9.5980e-03  0:02:32 1968
    33  5.0839e-02  4.1153e-02  2.2956e-02  7.2378e-01  5.0650e-02  1.0274e-02  9.2278e-03  0:02:02 1967

  iter  continuity  x-velocity  y-velocity  z-velocity      energy           k       omega     time/iter
    34  4.7498e-02  4.0251e-02  2.2926e-02  6.7485e-01  4.7301e-02  9.9047e-03  8.8672e-03  0:01:37 1966
    35  4.3997e-02  3.9615e-02  2.3060e-02  6.6219e-01  4.3794e-02  9.5572e-03  8.5162e-03  0:01:18 1965
    36  4.0405e-02  3.9061e-02  2.3475e-02  6.8560e-01  4.0196e-02  9.2264e-03  8.1856e-03  0:01:02 1964
    37  3.6762e-02  3.8649e-02  2.4146e-02  7.3699e-01  3.6551e-02  8.9155e-03  7.8607e-03  0:07:22 1963
    38  3.3135e-02  3.8545e-02  2.5011e-02  8.0806e-01  3.2922e-02  8.6271e-03  7.5461e-03  0:05:54 1962
    39  2.9566e-02  3.8589e-02  2.6078e-02  8.8435e-01  2.9352e-02  8.3590e-03  7.2638e-03  0:04:43 1961
    40  2.6136e-02  3.8776e-02  2.7321e-02  9.5886e-01  2.5924e-02  8.1170e-03  6.9984e-03  0:03:46 1960
    41  2.2898e-02  3.9073e-02  2.8652e-02  1.0240e+00  2.2688e-02  7.8787e-03  6.7395e-03  0:03:01 1959
    42  1.9883e-02  3.9424e-02  2.9961e-02  1.0789e+00  1.9677e-02  7.6448e-03  6.4906e-03  0:02:25 1958
    43  1.7139e-02  3.9884e-02  3.1228e-02  1.1224e+00  1.6937e-02  7.4271e-03  6.2702e-03  0:01:56 1957
    44  1.4708e-02  4.0327e-02  3.2378e-02  1.1523e+00  1.4515e-02  7.2207e-03  6.0494e-03  0:01:32 1956

  iter  continuity  x-velocity  y-velocity  z-velocity      energy           k       omega     time/iter
    45  1.2643e-02  4.0879e-02  3.3371e-02  1.1600e+00  1.2460e-02  7.0163e-03  5.8326e-03  0:01:14 1955
    46  1.1039e-02  4.1297e-02  3.4256e-02  1.1472e+00  1.0872e-02  6.8262e-03  5.6275e-03  0:00:59 1954
    47  9.9250e-03  4.1613e-02  3.4976e-02  1.1150e+00  9.7813e-03  6.6372e-03  5.4272e-03  0:07:18 1953
    48  9.3243e-03  4.1878e-02  3.5512e-02  1.0707e+00  9.2094e-03  6.4556e-03  5.2235e-03  0:05:50 1952
    49  9.1815e-03  4.2086e-02  3.5860e-02  1.0147e+00  9.0978e-03  6.2858e-03  5.0122e-03  0:04:40 1951
    50  9.3926e-03  4.2256e-02  3.6020e-02  9.5172e-01  9.3380e-03  6.1331e-03  4.8156e-03  0:03:44 1950
    51  9.8324e-03  4.2402e-02  3.5984e-02  8.8371e-01  9.8020e-03  5.9978e-03  4.6417e-03  0:02:59 1949
    52  1.0399e-02  4.2517e-02  3.5774e-02  8.1406e-01  1.0387e-02  5.8728e-03  4.4750e-03  0:02:23 1948
    53  1.1011e-02  4.2545e-02  3.5431e-02  7.4620e-01  1.1013e-02  5.7500e-03  4.3159e-03  0:01:54 1947
    54  1.1624e-02  4.2518e-02  3.4962e-02  6.8447e-01  1.1636e-02  5.6473e-03  4.1549e-03  0:01:31 1946
    55  1.2205e-02  4.2451e-02  3.4372e-02  6.3793e-01  1.2224e-02  5.5811e-03  4.0057e-03  0:01:13 1945

  iter  continuity  x-velocity  y-velocity  z-velocity      energy           k       omega     time/iter
    56  1.2737e-02  4.2365e-02  3.3682e-02  6.0796e-01  1.2761e-02  5.5493e-03  3.8795e-03  0:00:58 1944
    57  1.3208e-02  4.2218e-02  3.2897e-02  5.9304e-01  1.3235e-02  5.5251e-03  3.7732e-03  0:07:15 1943
    58  1.3603e-02  4.1916e-02  3.2032e-02  5.9677e-01  1.3631e-02  5.5025e-03  3.6633e-03  0:05:48 1942
    59  1.3918e-02  4.1464e-02  3.1099e-02  6.1710e-01  1.3947e-02  5.4809e-03  3.5591e-03  0:04:38 1941
    60  1.4154e-02  4.0964e-02  3.0086e-02  6.4860e-01  1.4183e-02  5.4622e-03  3.4557e-03  0:03:43 1940
    61  1.4308e-02  4.0381e-02  2.8991e-02  6.8530e-01  1.4335e-02  5.4514e-03  3.3650e-03  0:02:58 1939
    62  1.4380e-02  3.9706e-02  2.7843e-02  7.2205e-01  1.4406e-02  5.4430e-03  3.2846e-03  0:02:22 1938
    63  1.4368e-02  3.8959e-02  2.6631e-02  7.5727e-01  1.4392e-02  5.4382e-03  3.2096e-03  0:01:54 1937
    64  1.4271e-02  3.8114e-02  2.5364e-02  7.8892e-01  1.4293e-02  5.4361e-03  3.1405e-03  0:01:31 1936
    65  1.4085e-02  3.7160e-02  2.4059e-02  8.1144e-01  1.4105e-02  5.4322e-03  3.0822e-03  0:01:13 1935
    66  1.3815e-02  3.6119e-02  2.2732e-02  8.2607e-01  1.3832e-02  5.4191e-03  3.0264e-03  0:07:25 1934

  iter  continuity  x-velocity  y-velocity  z-velocity      energy           k       omega     time/iter
    67  1.3455e-02  3.4926e-02  2.1381e-02  8.3472e-01  1.3470e-02  5.3992e-03  2.9732e-03  0:05:56 1933
    68  1.3008e-02  3.3606e-02  2.0002e-02  8.3576e-01  1.3020e-02  5.3805e-03  2.9214e-03  0:04:44 1932
    69  1.2462e-02  3.2108e-02  1.8614e-02  8.2923e-01  1.2471e-02  5.3649e-03  2.8693e-03  0:03:47 1931
    70  1.1848e-02  3.0556e-02  1.7284e-02  8.1473e-01  1.1854e-02  5.3507e-03  2.8264e-03  0:03:02 1930
    71  1.1173e-02  2.8977e-02  1.5953e-02  7.9224e-01  1.1177e-02  5.3269e-03  2.7777e-03  0:02:25 1929
    72  1.0448e-02  2.7437e-02  1.4623e-02  7.6279e-01  1.0449e-02  5.2998e-03  2.7342e-03  0:01:56 1928
    73  9.6834e-03  2.5811e-02  1.3334e-02  7.2925e-01  9.6808e-03  5.2734e-03  2.6752e-03  0:01:33 1927
    74  8.9064e-03  2.4488e-02  1.1968e-02  6.9530e-01  8.9009e-03  5.2490e-03  2.6281e-03  0:01:14 1926
    75  8.1778e-03  2.3265e-02  1.0736e-02  6.6291e-01  8.1693e-03  5.2242e-03  2.5921e-03  0:07:24 1925
    76  7.5598e-03  2.2126e-02  9.6747e-03  6.3719e-01  7.5480e-03  5.2013e-03  2.5705e-03  0:05:55 1924
    77  7.1276e-03  2.1188e-02  8.7418e-03  6.1845e-01  7.1122e-03  5.1686e-03  2.5428e-03  0:04:44 1923

  iter  continuity  x-velocity  y-velocity  z-velocity      energy           k       omega     time/iter
    78  6.9576e-03  2.0504e-02  7.9506e-03  6.0981e-01  6.9383e-03  5.1388e-03  2.5210e-03  0:03:47 1922
    79  7.1191e-03  2.0104e-02  7.3041e-03  6.1002e-01  7.0961e-03  5.1074e-03  2.5007e-03  0:03:02 1921
    80  7.6182e-03  1.9981e-02  6.8183e-03  6.1800e-01  7.5917e-03  5.0722e-03  2.4866e-03  0:02:25 1920
    81  8.4052e-03  2.0134e-02  6.4850e-03  6.3729e-01  8.3754e-03  5.0343e-03  2.4658e-03  0:01:56 1919
    82  9.4104e-03  2.0511e-02  6.3113e-03  6.6247e-01  9.3772e-03  5.0045e-03  2.4441e-03  0:01:33 1918
    83  1.0568e-02  2.1036e-02  6.2938e-03  6.9129e-01  1.0531e-02  4.9900e-03  2.4220e-03  0:01:14 1917
    84  1.1819e-02  2.1662e-02  6.4128e-03  7.1721e-01  1.1778e-02  4.9756e-03  2.3990e-03  0:07:23 1916
    85  1.3109e-02  2.2321e-02  6.6100e-03  7.3938e-01  1.3063e-02  4.9715e-03  2.3668e-03  0:05:54 1915
    86  1.4408e-02  2.2957e-02  6.8708e-03  7.5408e-01  1.4357e-02  4.9670e-03  2.3335e-03  0:04:43 1914
    87  1.5677e-02  2.3548e-02  7.1462e-03  7.6055e-01  1.5620e-02  4.9628e-03  2.3062e-03  0:03:46 1913
    88  1.6878e-02  2.4005e-02  7.2690e-03  7.5948e-01  1.6814e-02  4.9773e-03  2.2790e-03  0:03:01 1912

  iter  continuity  x-velocity  y-velocity  z-velocity      energy           k       omega     time/iter
    89  1.7995e-02  2.4338e-02  7.4873e-03  7.5057e-01  1.7925e-02  5.0056e-03  2.2507e-03  0:02:25 1911
    90  1.9003e-02  2.4540e-02  7.6724e-03  7.3294e-01  1.8925e-02  5.0497e-03  2.2179e-03  0:01:56 1910
    91  1.9877e-02  2.4617e-02  7.8208e-03  7.0840e-01  1.9791e-02  5.1068e-03  2.1767e-03  0:01:32 1909
    92  2.0598e-02  2.4535e-02  7.9422e-03  6.7632e-01  2.0504e-02  5.1740e-03  2.1372e-03  0:01:14 1908
    93  2.1151e-02  2.4292e-02  8.0495e-03  6.3761e-01  2.1049e-02  5.2599e-03  2.0962e-03  0:07:21 1907
    94  2.1524e-02  2.3900e-02  8.1651e-03  5.9736e-01  2.1414e-02  5.3433e-03  2.0671e-03  0:05:52 1906
    95  2.1710e-02  2.3368e-02  8.3198e-03  5.5326e-01  2.1591e-02  5.4185e-03  2.0448e-03  0:04:42 1905
    96  2.1709e-02  2.2632e-02  8.5637e-03  5.0770e-01  2.1582e-02  5.4847e-03  2.0194e-03  0:03:45 1904
    97  2.1530e-02  2.1770e-02  8.8867e-03  4.6499e-01  2.1395e-02  5.5535e-03  1.9959e-03  0:03:00 1903
    98  2.1190e-02  2.0862e-02  9.3033e-03  4.3130e-01  2.1047e-02  5.6299e-03  1.9751e-03  0:02:24 1902
    99  2.0696e-02  1.9773e-02  9.8766e-03  4.1085e-01  2.0546e-02  5.6970e-03  1.9533e-03  0:01:55 1901

  iter  continuity  x-velocity  y-velocity  z-velocity      energy           k       omega     time/iter
   100  2.0063e-02  1.8610e-02  1.0580e-02  4.0643e-01  1.9906e-02  5.7516e-03  1.9345e-03  0:01:32 1900
   101  1.9306e-02  1.7624e-02  1.1347e-02  4.1526e-01  1.9142e-02  5.8057e-03  1.9158e-03  0:07:33 1899
   102  1.8431e-02  1.6770e-02  1.2179e-02  4.3638e-01  1.8261e-02  5.8494e-03  1.8958e-03  0:06:03 1898
   103  1.7476e-02  1.6094e-02  1.3107e-02  4.6704e-01  1.7300e-02  5.8867e-03  1.8750e-03  0:04:50 1897
   104  1.6471e-02  1.5680e-02  1.4103e-02  5.0206e-01  1.6290e-02  5.9112e-03  1.8555e-03  0:03:52 1896
   105  1.5411e-02  1.5614e-02  1.5146e-02  5.3745e-01  1.5227e-02  5.9241e-03  1.8407e-03  0:03:05 1895
   106  1.4312e-02  1.5891e-02  1.6210e-02  5.7040e-01  1.4125e-02  5.9233e-03  1.8317e-03  0:02:28 1894
   107  1.3202e-02  1.6494e-02  1.7262e-02  5.9889e-01  1.3013e-02  5.9063e-03  1.8279e-03  0:01:58 1893
   108  1.2103e-02  1.7396e-02  1.8268e-02  6.2145e-01  1.1913e-02  5.8822e-03  1.8134e-03  0:01:35 1892
   109  1.1034e-02  1.8492e-02  1.9217e-02  6.3705e-01  1.0845e-02  5.8510e-03  1.8040e-03  0:01:16 1891
   110  9.9441e-03  1.9378e-02  2.0030e-02  6.4405e-01  9.7566e-03  5.8083e-03  1.7877e-03  0:07:19 1890

  iter  continuity  x-velocity  y-velocity  z-velocity      energy           k       omega     time/iter
   111  8.9186e-03  2.0535e-02  2.0785e-02  6.4294e-01  8.7351e-03  5.7524e-03  1.7654e-03  0:05:51 1889
   112  8.0007e-03  2.1835e-02  2.1443e-02  6.3209e-01  7.8242e-03  5.6872e-03  1.7539e-03  0:04:40 1888
   113  7.2109e-03  2.3176e-02  2.1984e-02  6.1396e-01  7.0450e-03  5.6197e-03  1.7314e-03  0:03:44 1887
   114  6.5723e-03  2.4538e-02  2.2390e-02  5.8943e-01  6.4215e-03  5.5404e-03  1.7085e-03  0:02:59 1886
   115  6.0960e-03  2.5856e-02  2.2651e-02  5.6016e-01  5.9647e-03  5.4580e-03  1.6824e-03  0:02:23 1885
   116  5.7680e-03  2.7284e-02  2.2607e-02  5.2607e-01  5.6601e-03  5.3636e-03  1.6704e-03  0:01:55 1884
   117  5.6363e-03  2.8537e-02  2.2559e-02  4.8806e-01  5.5545e-03  5.2609e-03  1.6621e-03  0:01:32 1883
   118  5.6797e-03  2.9610e-02  2.2437e-02  4.4743e-01  5.6232e-03  5.1549e-03  1.6162e-03  0:07:30 1882
   119  5.8577e-03  3.0534e-02  2.2204e-02  4.0383e-01  5.8231e-03  5.0407e-03  1.5740e-03  0:06:00 1881
   120  6.1291e-03  3.1310e-02  2.1864e-02  3.6072e-01  6.1119e-03  4.9147e-03  1.5439e-03  0:04:47 1880
   121  6.4559e-03  3.1958e-02  2.1418e-02  3.2011e-01  6.4515e-03  4.7810e-03  1.5137e-03  0:03:50 1879

  iter  continuity  x-velocity  y-velocity  z-velocity      energy           k       omega     time/iter
   122  6.8017e-03  3.2470e-02  2.0870e-02  2.8322e-01  6.8060e-03  4.6321e-03  1.4928e-03  0:03:04 1878
   123  7.1458e-03  3.2831e-02  2.0235e-02  2.5410e-01  7.1557e-03  4.4762e-03  1.4675e-03  0:02:27 1877
   124  7.4689e-03  3.3034e-02  1.9529e-02  2.3579e-01  7.4819e-03  4.3236e-03  1.4375e-03  0:01:58 1876
   125  7.7573e-03  3.3079e-02  1.8764e-02  2.3086e-01  7.7714e-03  4.1766e-03  1.4086e-03  0:01:34 1875
   126  8.0009e-03  3.2976e-02  1.7952e-02  2.3947e-01  8.0146e-03  4.0229e-03  1.3791e-03  0:07:30 1874
   127  8.1950e-03  3.2728e-02  1.7103e-02  2.6097e-01  8.2072e-03  3.8583e-03  1.3473e-03  0:06:00 1873
   128  8.3384e-03  3.2398e-02  1.6188e-02  2.8664e-01  8.3483e-03  3.6850e-03  1.3167e-03  0:04:48 1872
   129  8.4250e-03  3.2199e-02  1.5125e-02  3.1877e-01  8.4323e-03  3.5173e-03  1.2914e-03  0:03:50 1871
   130  8.4657e-03  3.1682e-02  1.4203e-02  3.5127e-01  8.4699e-03  3.3586e-03  1.2685e-03  0:03:04 1870
   131  8.4598e-03  3.0967e-02  1.3328e-02  3.8200e-01  8.4605e-03  3.2055e-03  1.2489e-03  0:02:27 1869
   132  8.4067e-03  3.0113e-02  1.2473e-02  4.1248e-01  8.4035e-03  3.0608e-03  1.2289e-03  0:01:58 1868

  iter  continuity  x-velocity  y-velocity  z-velocity      energy           k       omega     time/iter
   133  8.3065e-03  2.9169e-02  1.1660e-02  4.4199e-01  8.2991e-03  2.9277e-03  1.2104e-03  0:07:47 1867
   134  8.1598e-03  2.8132e-02  1.0892e-02  4.6937e-01  8.1482e-03  2.8100e-03  1.1932e-03  0:06:14 1866
   135  7.9681e-03  2.7032e-02  1.0173e-02  4.9361e-01  7.9522e-03  2.7099e-03  1.1804e-03  0:04:59 1865
   136  7.7342e-03  2.5885e-02  9.5204e-03  5.1416e-01  7.7139e-03  2.6325e-03  1.1747e-03  0:03:59 1864
   137  7.4618e-03  2.4714e-02  8.9514e-03  5.3105e-01  7.4374e-03  2.5843e-03  1.1683e-03  0:03:11 1863
   138  7.1539e-03  2.3520e-02  8.4908e-03  5.4405e-01  7.1255e-03  2.5466e-03  1.1760e-03  0:02:33 1862
   139  6.8085e-03  2.2299e-02  8.1211e-03  5.5405e-01  6.7765e-03  2.5405e-03  1.1914e-03  0:02:02 1861
   140  6.4472e-03  2.1076e-02  7.9202e-03  5.6051e-01  6.4118e-03  2.5543e-03  1.2021e-03  0:07:50 1860
   141  6.0921e-03  1.9927e-02  7.9308e-03  5.6334e-01  6.0537e-03  2.5785e-03  1.2163e-03  0:06:16 1859
   142  5.7023e-03  1.8814e-02  7.9785e-03  5.6479e-01  5.6612e-03  2.6105e-03  1.2368e-03  0:05:00 1858
   143  5.3175e-03  1.8330e-02  8.0569e-03  5.6474e-01  5.2743e-03  2.6400e-03  1.2514e-03  0:04:00 1857

  iter  continuity  x-velocity  y-velocity  z-velocity      energy           k       omega     time/iter
   144  4.9679e-03  1.8038e-02  8.0225e-03  5.6164e-01  4.9226e-03  2.6681e-03  1.2567e-03  0:03:12 1856
   145  4.5854e-03  1.7303e-02  8.0071e-03  5.5778e-01  4.5382e-03  2.7021e-03  1.2587e-03  0:02:33 1855
   146  4.1794e-03  1.6302e-02  8.0785e-03  5.4891e-01  4.1317e-03  2.7400e-03  1.2468e-03  0:08:14 1854
   147  3.7935e-03  1.5371e-02  8.1617e-03  5.3569e-01  3.7460e-03  2.7823e-03  1.2454e-03  0:06:35 1853
   148  3.4632e-03  1.4669e-02  8.2395e-03  5.2070e-01  3.4174e-03  2.8180e-03  1.2455e-03  0:05:16 1852
   149  3.2063e-03  1.4185e-02  8.3060e-03  5.0200e-01  3.1642e-03  2.8517e-03  1.2506e-03  0:04:12 1851
   150  3.0319e-03  1.3858e-02  8.3537e-03  4.8118e-01  2.9954e-03  2.8801e-03  1.2511e-03  0:03:22 1850
   151  2.9442e-03  1.3640e-02  8.3735e-03  4.5781e-01  2.9146e-03  2.9102e-03  1.2535e-03  0:02:41 1849
   152  2.9394e-03  1.3497e-02  8.3585e-03  4.3235e-01  2.9171e-03  2.9436e-03  1.2549e-03  0:02:09 1848
   153  3.0030e-03  1.3402e-02  8.3015e-03  4.0447e-01  2.9876e-03  2.9741e-03  1.2479e-03  0:01:43 1847
   154  3.0911e-03  1.3433e-02  8.2724e-03  3.7547e-01  3.0821e-03  2.9983e-03  1.2417e-03  0:07:32 1846

  iter  continuity  x-velocity  y-velocity  z-velocity      energy           k       omega     time/iter
   155  3.2382e-03  1.3417e-02  8.2104e-03  3.4498e-01  3.2340e-03  3.0155e-03  1.2268e-03  0:06:01 1845
   156  3.4088e-03  1.3339e-02  8.0387e-03  3.1288e-01  3.4079e-03  3.0321e-03  1.2107e-03  0:04:49 1844
   157  3.5763e-03  1.3262e-02  7.8014e-03  2.8091e-01  3.5776e-03  3.0475e-03  1.1994e-03  0:03:51 1843
   158  3.7304e-03  1.3182e-02  7.5335e-03  2.4950e-01  3.7332e-03  3.0523e-03  1.1840e-03  0:03:05 1842
   159  3.8643e-03  1.3084e-02  7.2487e-03  2.1939e-01  3.8681e-03  3.0608e-03  1.1672e-03  0:02:28 1841
   160  3.9721e-03  1.2956e-02  6.9488e-03  1.9163e-01  3.9764e-03  3.0781e-03  1.1463e-03  0:01:58 1840
   161  4.0501e-03  1.2792e-02  6.6312e-03  1.6823e-01  4.0545e-03  3.0924e-03  1.1260e-03  0:07:42 1839
   162  4.0976e-03  1.2591e-02  6.2943e-03  1.5061e-01  4.1018e-03  3.1056e-03  1.1081e-03  0:06:10 1838
   163  4.1137e-03  1.2354e-02  5.9393e-03  1.4100e-01  4.1175e-03  3.1181e-03  1.0928e-03  0:04:55 1837
   164  4.0975e-03  1.2082e-02  5.5692e-03  1.4035e-01  4.1006e-03  3.1211e-03  1.0781e-03  0:03:56 1836
   165  4.0501e-03  1.1779e-02  5.1881e-03  1.4886e-01  4.0525e-03  3.1238e-03  1.0632e-03  0:03:09 1835

  iter  continuity  x-velocity  y-velocity  z-velocity      energy           k       omega     time/iter
   166  3.9744e-03  1.1449e-02  4.8010e-03  1.6439e-01  3.9761e-03  3.1277e-03  1.0458e-03  0:02:31 1834
   167  3.8732e-03  1.1096e-02  4.4131e-03  1.8428e-01  3.8740e-03  3.1342e-03  1.0309e-03  0:02:01 1833
   168  3.7482e-03  1.0726e-02  4.0297e-03  2.0677e-01  3.7482e-03  3.1336e-03  1.0160e-03  0:01:37 1832
   169  3.6042e-03  1.0347e-02  3.6564e-03  2.3074e-01  3.6034e-03  3.1321e-03  1.0010e-03  0:07:23 1831
   170  3.4457e-03  9.9652e-03  3.2989e-03  2.5511e-01  3.4442e-03  3.1245e-03  9.8314e-04  0:05:55 1830
   171  3.2770e-03  9.5875e-03  2.9638e-03  2.7905e-01  3.2750e-03  3.1200e-03  9.6795e-04  0:04:43 1829
   172  3.1032e-03  9.2207e-03  2.6574e-03  3.0190e-01  3.1008e-03  3.1164e-03  9.5529e-04  0:03:47 1828
   173  2.9304e-03  8.8701e-03  2.3865e-03  3.2290e-01  2.9276e-03  3.1219e-03  9.4228e-04  0:03:01 1827
   174  2.7648e-03  8.5423e-03  2.1578e-03  3.4241e-01  2.7618e-03  3.1357e-03  9.2881e-04  0:02:25 1826
   175  2.6145e-03  8.2429e-03  1.9764e-03  3.5952e-01  2.6114e-03  3.1544e-03  9.2014e-04  0:01:56 1825
   176  2.4870e-03  7.9752e-03  1.8450e-03  3.7476e-01  2.4839e-03  3.1751e-03  9.0955e-04  0:01:33 1824

  iter  continuity  x-velocity  y-velocity  z-velocity      energy           k       omega     time/iter
   177  2.3875e-03  7.7429e-03  1.7621e-03  3.8737e-01  2.3845e-03  3.1945e-03  8.9840e-04  0:07:19 1823
   178  2.3209e-03  7.5377e-03  1.7217e-03  3.9613e-01  2.3182e-03  3.2189e-03  8.9102e-04  0:05:51 1822
   179  2.2921e-03  7.3385e-03  1.7227e-03  4.0196e-01  2.2895e-03  3.2435e-03  8.7347e-04  0:04:40 1821
   180  2.3002e-03  7.2101e-03  1.7281e-03  4.0581e-01  2.2978e-03  3.2646e-03  8.6460e-04  0:03:44 1820
   181  2.3415e-03  7.1182e-03  1.7533e-03  4.0774e-01  2.3392e-03  3.2824e-03  8.5433e-04  0:02:59 1819
   182  2.4115e-03  7.0509e-03  1.7904e-03  4.0731e-01  2.4092e-03  3.2981e-03  8.4853e-04  0:02:23 1818
   183  2.5036e-03  7.0021e-03  1.8286e-03  4.0577e-01  2.5013e-03  3.3149e-03  8.4380e-04  0:01:55 1817
   184  2.6107e-03  6.9654e-03  1.8624e-03  4.0321e-01  2.6081e-03  3.3237e-03  8.3800e-04  0:07:35 1816
   185  2.7270e-03  6.9383e-03  1.8837e-03  3.9793e-01  2.7241e-03  3.3266e-03  8.3208e-04  0:06:04 1815
   186  2.8470e-03  6.9150e-03  1.8920e-03  3.8923e-01  2.8437e-03  3.3257e-03  8.3079e-04  0:04:51 1814
   187  2.9662e-03  6.8912e-03  1.8878e-03  3.7807e-01  2.9624e-03  3.3200e-03  8.3020e-04  0:03:52 1813

  iter  continuity  x-velocity  y-velocity  z-velocity      energy           k       omega     time/iter
   188  3.0806e-03  6.8627e-03  1.8719e-03  3.6613e-01  3.0762e-03  3.3065e-03  8.3281e-04  0:03:06 1812
   189  3.1856e-03  6.8264e-03  1.8452e-03  3.5509e-01  3.1807e-03  3.2879e-03  8.2996e-04  0:02:29 1811
   190  3.2776e-03  6.7811e-03  1.8092e-03  3.4490e-01  3.2721e-03  3.2619e-03  8.2767e-04  0:01:59 1810
   191  3.3537e-03  6.7251e-03  1.7657e-03  3.3453e-01  3.3477e-03  3.2303e-03  8.2420e-04  0:01:35 1809
   192  3.4132e-03  6.6578e-03  1.7171e-03  3.2003e-01  3.4066e-03  3.1921e-03  8.1814e-04  0:07:18 1808
   193  3.4557e-03  6.5790e-03  1.6658e-03  3.0430e-01  3.4486e-03  3.1552e-03  8.1121e-04  0:05:50 1807
   194  3.4796e-03  6.4891e-03  1.6143e-03  2.8742e-01  3.4722e-03  3.1238e-03  8.0567e-04  0:04:40 1806
   195  3.4854e-03  6.3890e-03  1.5649e-03  2.7085e-01  3.4775e-03  3.0894e-03  7.9937e-04  0:03:44 1805
   196  3.4751e-03  6.2799e-03  1.5201e-03  2.5269e-01  3.4669e-03  3.0545e-03  7.9262e-04  0:02:59 1804
   197  3.4497e-03  6.1638e-03  1.4826e-03  2.3280e-01  3.4413e-03  3.0142e-03  7.8535e-04  0:02:23 1803
   198  3.4102e-03  6.0429e-03  1.4539e-03  2.1289e-01  3.4016e-03  2.9696e-03  7.8323e-04  0:01:54 1802

  iter  continuity  x-velocity  y-velocity  z-velocity      energy           k       omega     time/iter
   199  3.3576e-03  5.9195e-03  1.4359e-03  1.9344e-01  3.3489e-03  2.9151e-03  7.7742e-04  0:01:31 1801
   200  3.2930e-03  5.7958e-03  1.4290e-03  1.7544e-01  3.2842e-03  2.8616e-03  7.6860e-04  0:07:13 1800
   201  3.2171e-03  5.6744e-03  1.4334e-03  1.5920e-01  3.2084e-03  2.8065e-03  7.6049e-04  0:05:46 1799
   202  3.1308e-03  5.5579e-03  1.4487e-03  1.4517e-01  3.1222e-03  2.7510e-03  7.5325e-04  0:04:37 1798
   203  3.0360e-03  5.4488e-03  1.4731e-03  1.3409e-01  3.0276e-03  2.6928e-03  7.4323e-04  0:03:41 1797
   204  2.9338e-03  5.3492e-03  1.5052e-03  1.2649e-01  2.9257e-03  2.6321e-03  7.3139e-04  0:02:57 1796
   205  2.8254e-03  5.2609e-03  1.5430e-03  1.2295e-01  2.8178e-03  2.5684e-03  7.2097e-04  0:02:22 1795
   206  2.7124e-03  5.1851e-03  1.5845e-03  1.2285e-01  2.7053e-03  2.5033e-03  7.1273e-04  0:01:53 1794
   207  2.5968e-03  5.1230e-03  1.6276e-03  1.2528e-01  2.5903e-03  2.4399e-03  7.0409e-04  0:01:30 1793
   208  2.4790e-03  5.1060e-03  1.6650e-03  1.2935e-01  2.4731e-03  2.3769e-03  6.9468e-04  0:07:11 1792
   209  2.3626e-03  5.0807e-03  1.7197e-03  1.3483e-01  2.3575e-03  2.3151e-03  6.8381e-04  0:05:44 1791

  iter  continuity  x-velocity  y-velocity  z-velocity      energy           k       omega     time/iter
   210  2.2491e-03  5.0533e-03  1.7643e-03  1.4082e-01  2.2449e-03  2.2543e-03  6.7162e-04  0:04:35 1790
   211  2.1408e-03  5.0343e-03  1.7959e-03  1.4671e-01  2.1374e-03  2.1968e-03  6.5376e-04  0:03:40 1789
   212  2.0397e-03  5.0253e-03  1.8185e-03  1.5213e-01  2.0372e-03  2.1462e-03  6.3892e-04  0:02:56 1788
   213  1.9485e-03  5.0247e-03  1.8345e-03  1.5683e-01  1.9469e-03  2.0976e-03  6.2539e-04  0:02:21 1787
   214  1.8678e-03  5.0294e-03  1.8445e-03  1.6067e-01  1.8670e-03  2.0544e-03  6.1216e-04  0:01:53 1786
   215  1.7981e-03  5.0364e-03  1.8479e-03  1.6356e-01  1.7981e-03  2.0137e-03  5.9563e-04  0:01:30 1785
   216  1.7402e-03  5.0428e-03  1.8438e-03  1.6582e-01  1.7409e-03  1.9703e-03  5.7865e-04  0:07:09 1784
   217  1.6940e-03  5.0460e-03  1.8315e-03  1.6740e-01  1.6954e-03  1.9287e-03  5.6247e-04  0:05:43 1783
   218  1.6590e-03  5.0436e-03  1.8106e-03  1.6803e-01  1.6608e-03  1.8869e-03  5.4724e-04  0:04:34 1782
   219  1.6338e-03  5.0335e-03  1.7813e-03  1.6752e-01  1.6359e-03  1.8484e-03  5.3418e-04  0:03:39 1781
   220  1.6167e-03  5.0140e-03  1.7436e-03  1.6628e-01  1.6189e-03  1.8107e-03  5.2220e-04  0:02:55 1780

  iter  continuity  x-velocity  y-velocity  z-velocity      energy           k       omega     time/iter
   221  1.6055e-03  4.9834e-03  1.6978e-03  1.6418e-01  1.6077e-03  1.7735e-03  5.0989e-04  0:02:20 1779
   222  1.5985e-03  4.9406e-03  1.6444e-03  1.6122e-01  1.6005e-03  1.7344e-03  4.9577e-04  0:07:48 1778
   223  1.5942e-03  4.8852e-03  1.5841e-03  1.5687e-01  1.5960e-03  1.6946e-03  4.8236e-04  0:06:14 1777
   224  1.5899e-03  4.8173e-03  1.5176e-03  1.5135e-01  1.5913e-03  1.6536e-03  4.6738e-04  0:04:59 1776
   225  1.5842e-03  4.7364e-03  1.4457e-03  1.4468e-01  1.5853e-03  1.6121e-03  4.5700e-04  0:03:59 1775
   226  1.5751e-03  4.6422e-03  1.3694e-03  1.3745e-01  1.5757e-03  1.5717e-03  4.4632e-04  0:03:11 1774
   227  1.5610e-03  4.5355e-03  1.2899e-03  1.2976e-01  1.5611e-03  1.5311e-03  4.3351e-04  0:02:33 1773
   228  1.5406e-03  4.4174e-03  1.2084e-03  1.2144e-01  1.5403e-03  1.4891e-03  4.2347e-04  0:07:57 1772
   229  1.5151e-03  4.2893e-03  1.1265e-03  1.1317e-01  1.5144e-03  1.4459e-03  4.1270e-04  0:06:21 1771
   230  1.4841e-03  4.1525e-03  1.0459e-03  1.0528e-01  1.4829e-03  1.4038e-03  4.0275e-04  0:05:05 1770
   231  1.4471e-03  4.0087e-03  9.6831e-04  9.7788e-02  1.4455e-03  1.3655e-03  3.9374e-04  0:04:04 1769

  iter  continuity  x-velocity  y-velocity  z-velocity      energy           k       omega     time/iter
   232  1.4050e-03  3.8602e-03  8.9579e-04  9.1038e-02  1.4030e-03  1.3308e-03  3.8518e-04  0:03:15 1768
   233  1.3584e-03  3.7098e-03  8.3052e-04  8.5312e-02  1.3562e-03  1.3007e-03  3.7637e-04  0:02:36 1767
   234  1.3083e-03  3.5596e-03  7.7465e-04  8.0999e-02  1.3058e-03  1.2773e-03  3.6828e-04  0:02:05 1766
   235  1.2557e-03  3.4121e-03  7.2992e-04  7.8216e-02  1.2530e-03  1.2569e-03  3.6388e-04  0:01:40 1765
   236  1.2018e-03  3.2701e-03  6.9764e-04  7.7121e-02  1.1990e-03  1.2360e-03  3.5852e-04  0:07:12 1764
   237  1.1486e-03  3.1363e-03  6.7828e-04  7.7593e-02  1.1457e-03  1.2176e-03  3.5307e-04  0:05:46 1763
   238  1.0977e-03  3.0131e-03  6.7115e-04  7.9541e-02  1.0948e-03  1.2007e-03  3.5093e-04  0:04:36 1762
   239  1.0513e-03  2.9028e-03  6.7459e-04  8.2558e-02  1.0484e-03  1.1852e-03  3.4857e-04  0:03:41 1761
   240  1.0114e-03  2.7941e-03  6.8805e-04  8.6290e-02  1.0086e-03  1.1725e-03  3.3802e-04  0:02:57 1760
   241  9.8022e-04  2.7108e-03  7.0215e-04  9.0521e-02  9.7748e-04  1.1640e-03  3.3529e-04  0:02:21 1759
   242  9.5881e-04  2.6494e-03  7.1934e-04  9.5023e-02  9.5613e-04  1.1564e-03  3.3152e-04  0:01:53 1758

  iter  continuity  x-velocity  y-velocity  z-velocity      energy           k       omega     time/iter
   243  9.4817e-04  2.6053e-03  7.4016e-04  9.9556e-02  9.4555e-04  1.1480e-03  3.2861e-04  0:07:22 1757
   244  9.4877e-04  2.5758e-03  7.6263e-04  1.0389e-01  9.4615e-04  1.1384e-03  3.2485e-04  0:05:53 1756
   245  9.6039e-04  2.5605e-03  7.8322e-04  1.0786e-01  9.5772e-04  1.1307e-03  3.1921e-04  0:04:42 1755
   246  9.8143e-04  2.5566e-03  8.0082e-04  1.1141e-01  9.7863e-04  1.1233e-03  3.1590e-04  0:03:46 1754
   247  1.0101e-03  2.5619e-03  8.1520e-04  1.1440e-01  1.0071e-03  1.1178e-03  3.1169e-04  0:03:01 1753
   248  1.0445e-03  2.5739e-03  8.2638e-04  1.1680e-01  1.0412e-03  1.1127e-03  3.0678e-04  0:02:24 1752
   249  1.0830e-03  2.5898e-03  8.3465e-04  1.1860e-01  1.0795e-03  1.1094e-03  3.0361e-04  0:01:55 1751
   250  1.1239e-03  2.6074e-03  8.4054e-04  1.1980e-01  1.1200e-03  1.1061e-03  3.0192e-04  0:07:22 1750
   251  1.1656e-03  2.6248e-03  8.4473e-04  1.2047e-01  1.1614e-03  1.1061e-03  3.0140e-04  0:05:54 1749
   252  1.2067e-03  2.6405e-03  8.4800e-04  1.2056e-01  1.2021e-03  1.1064e-03  3.0170e-04  0:04:43 1748
   253  1.2453e-03  2.6533e-03  8.5126e-04  1.2008e-01  1.2402e-03  1.1093e-03  3.0213e-04  0:03:46 1747

  iter  continuity  x-velocity  y-velocity  z-velocity      energy           k       omega     time/iter
   254  1.2804e-03  2.6623e-03  8.5537e-04  1.1909e-01  1.2750e-03  1.1155e-03  3.0111e-04  0:03:01 1746
   255  1.3117e-03  2.6671e-03  8.6113e-04  1.1756e-01  1.3059e-03  1.1221e-03  3.0169e-04  0:02:25 1745
   256  1.3386e-03  2.6680e-03  8.6938e-04  1.1559e-01  1.3324e-03  1.1305e-03  3.0113e-04  0:07:44 1744
   257  1.3607e-03  2.6652e-03  8.8069e-04  1.1310e-01  1.3542e-03  1.1414e-03  3.0395e-04  0:06:11 1743
   258  1.3776e-03  2.6593e-03  8.9547e-04  1.1020e-01  1.3709e-03  1.1532e-03  3.0433e-04  0:04:57 1742
   259  1.3890e-03  2.6510e-03  9.1390e-04  1.0698e-01  1.3821e-03  1.1667e-03  3.0590e-04  0:03:57 1741
   260  1.3948e-03  2.6419e-03  9.3583e-04  1.0345e-01  1.3877e-03  1.1787e-03  3.0649e-04  0:03:10 1740
   261  1.3948e-03  2.6325e-03  9.6096e-04  9.9733e-02  1.3876e-03  1.1932e-03  3.0641e-04  0:02:32 1739
   262  1.3891e-03  2.6238e-03  9.8874e-04  9.5969e-02  1.3819e-03  1.2082e-03  3.0986e-04  0:07:49 1738
   263  1.3777e-03  2.6169e-03  1.0185e-03  9.1887e-02  1.3705e-03  1.2241e-03  3.1429e-04  0:06:15 1737
   264  1.3608e-03  2.6127e-03  1.0494e-03  8.7761e-02  1.3538e-03  1.2420e-03  3.1629e-04  0:05:00 1736

  iter  continuity  x-velocity  y-velocity  z-velocity      energy           k       omega     time/iter
   265  1.3387e-03  2.6144e-03  1.0791e-03  8.3614e-02  1.3318e-03  1.2606e-03  3.1825e-04  0:04:00 1735
   266  1.3115e-03  2.6458e-03  1.1022e-03  7.9532e-02  1.3048e-03  1.2797e-03  3.2052e-04  0:03:12 1734
   267  1.2808e-03  2.6606e-03  1.1386e-03  7.5506e-02  1.2745e-03  1.2976e-03  3.2339e-04  0:02:33 1733
   268  1.2465e-03  2.6702e-03  1.1713e-03  7.1652e-02  1.2407e-03  1.3153e-03  3.2690e-04  0:07:49 1732
   269  1.2093e-03  2.6819e-03  1.1975e-03  6.7945e-02  1.2039e-03  1.3335e-03  3.3177e-04  0:06:15 1731
   270  1.1699e-03  2.6980e-03  1.2185e-03  6.4509e-02  1.1650e-03  1.3516e-03  3.3770e-04  0:05:00 1730
   271  1.1288e-03  2.7183e-03  1.2354e-03  6.1292e-02  1.1245e-03  1.3678e-03  3.4340e-04  0:04:00 1729
   272  1.0868e-03  2.7420e-03  1.2485e-03  5.8459e-02  1.0832e-03  1.3829e-03  3.4321e-04  0:03:12 1728
   273  1.0449e-03  2.7675e-03  1.2577e-03  5.6009e-02  1.0419e-03  1.3982e-03  3.4695e-04  0:02:33 1727
   274  1.0038e-03  2.7938e-03  1.2626e-03  5.3986e-02  1.0016e-03  1.4120e-03  3.5271e-04  0:02:02 1726
   275  9.6434e-04  2.8197e-03  1.2629e-03  5.2329e-02  9.6276e-04  1.4257e-03  3.5446e-04  0:07:23 1725

  iter  continuity  x-velocity  y-velocity  z-velocity      energy           k       omega     time/iter
   276  9.2687e-04  2.8441e-03  1.2582e-03  5.1029e-02  9.2597e-04  1.4375e-03  3.5693e-04  0:05:54 1724
   277  8.9236e-04  2.8660e-03  1.2484e-03  5.0034e-02  8.9210e-04  1.4476e-03  3.5857e-04  0:04:43 1723
   278  8.6173e-04  2.8842e-03  1.2337e-03  4.9381e-02  8.6205e-04  1.4551e-03  3.5862e-04  0:03:46 1722
   279  8.3523e-04  2.8978e-03  1.2141e-03  4.9041e-02  8.3605e-04  1.4609e-03  3.5809e-04  0:03:01 1721
   280  8.1295e-04  2.9059e-03  1.1898e-03  4.8974e-02  8.1416e-04  1.4670e-03  3.5782e-04  0:02:25 1720
   281  7.9477e-04  2.9080e-03  1.1610e-03  4.9138e-02  7.9625e-04  1.4730e-03  3.5647e-04  0:01:56 1719
   282  7.8036e-04  2.9035e-03  1.1280e-03  4.9454e-02  7.8201e-04  1.4784e-03  3.5526e-04  0:07:16 1718
   283  7.6933e-04  2.8921e-03  1.0914e-03  4.9842e-02  7.7101e-04  1.4842e-03  3.5174e-04  0:05:49 1717
   284  7.6107e-04  2.8736e-03  1.0516e-03  5.0339e-02  7.6269e-04  1.4893e-03  3.4869e-04  0:04:39 1716
   285  7.5474e-04  2.8480e-03  1.0089e-03  5.0952e-02  7.5620e-04  1.4922e-03  3.4522e-04  0:03:43 1715
   286  7.4976e-04  2.8153e-03  9.6431e-04  5.1596e-02  7.5098e-04  1.4937e-03  3.4462e-04  0:02:58 1714

  iter  continuity  x-velocity  y-velocity  z-velocity      energy           k       omega     time/iter
   287  7.4554e-04  2.7758e-03  9.1835e-04  5.2260e-02  7.4646e-04  1.4947e-03  3.4265e-04  0:02:22 1713
   288  7.4154e-04  2.7300e-03  8.7188e-04  5.2895e-02  7.4212e-04  1.4957e-03  3.3965e-04  0:07:36 1712
   289  7.3723e-04  2.6787e-03  8.2570e-04  5.3492e-02  7.3745e-04  1.4935e-03  3.3522e-04  0:06:05 1711
   290  7.3211e-04  2.6226e-03  7.8068e-04  5.4011e-02  7.3198e-04  1.4894e-03  3.3397e-04  0:04:52 1710
   291  7.2585e-04  2.5624e-03  7.3766e-04  5.4438e-02  7.2537e-04  1.4850e-03  3.3511e-04  0:03:53 1709
   292  7.1824e-04  2.4990e-03  6.9752e-04  5.4753e-02  7.1742e-04  1.4808e-03  3.3334e-04  0:03:06 1708
   293  7.0919e-04  2.4332e-03  6.6117e-04  5.4986e-02  7.0808e-04  1.4750e-03  3.2953e-04  0:08:10 1707
   294  6.9877e-04  2.3661e-03  6.2948e-04  5.5004e-02  6.9741e-04  1.4692e-03  3.2678e-04  0:06:32 1706
   295  6.8703e-04  2.2986e-03  6.0293e-04  5.4857e-02  6.8547e-04  1.4647e-03  3.2488e-04  0:05:14 1705
   296  6.7412e-04  2.2318e-03  5.8187e-04  5.4535e-02  6.7241e-04  1.4563e-03  3.2154e-04  0:04:11 1704
   297  6.6035e-04  2.1668e-03  5.6640e-04  5.4050e-02  6.5855e-04  1.4480e-03  3.1775e-04  0:03:20 1703

  iter  continuity  x-velocity  y-velocity  z-velocity      energy           k       omega     time/iter
   298  6.4607e-04  2.1047e-03  5.5624e-04  5.3429e-02  6.4424e-04  1.4401e-03  3.1546e-04  0:02:40 1702
   299  6.3176e-04  2.0465e-03  5.5078e-04  5.2687e-02  6.2995e-04  1.4337e-03  3.1312e-04  0:02:08 1701
   300  6.1791e-04  1.9930e-03  5.4944e-04  5.1810e-02  6.1617e-04  1.4260e-03  3.0962e-04  0:07:22 1700
   301  6.0516e-04  1.9451e-03  5.5106e-04  5.0875e-02  6.0354e-04  1.4158e-03  3.0531e-04  0:05:54 1699
   302  5.9401e-04  1.9029e-03  5.5449e-04  4.9879e-02  5.9255e-04  1.4049e-03  3.0192e-04  0:04:43 1698
   303  5.8499e-04  1.8667e-03  5.5870e-04  4.8792e-02  5.8371e-04  1.3936e-03  2.9873e-04  0:03:46 1697
   304  5.7848e-04  1.8366e-03  5.6275e-04  4.7616e-02  5.7740e-04  1.3832e-03  2.9590e-04  0:03:01 1696
   305  5.7453e-04  1.8121e-03  5.6583e-04  4.6363e-02  5.7364e-04  1.3728e-03  2.9418e-04  0:02:25 1695
   306  5.7315e-04  1.7926e-03  5.6733e-04  4.5038e-02  5.7245e-04  1.3599e-03  2.9245e-04  0:01:56 1694
   307  5.7421e-04  1.7776e-03  5.6674e-04  4.3619e-02  5.7367e-04  1.3458e-03  2.8947e-04  0:01:32 1693
   308  5.7749e-04  1.7661e-03  5.6370e-04  4.2162e-02  5.7708e-04  1.3364e-03  2.8556e-04  0:06:52 1692

  iter  continuity  x-velocity  y-velocity  z-velocity      energy           k       omega     time/iter
   309  5.8274e-04  1.7571e-03  5.5801e-04  4.0691e-02  5.8241e-04  1.3250e-03  2.8137e-04  0:05:30 1691
   310  5.8933e-04  1.7499e-03  5.4958e-04  3.9328e-02  5.8905e-04  1.3120e-03  2.7834e-04  0:04:24 1690
   311  5.9633e-04  1.7435e-03  5.3839e-04  3.8066e-02  5.9606e-04  1.2989e-03  2.7594e-04  0:03:31 1689
   312  6.0325e-04  1.7371e-03  5.2461e-04  3.6944e-02  6.0297e-04  1.2859e-03  2.7257e-04  0:02:48 1688
   313  6.0966e-04  1.7301e-03  5.0847e-04  3.5944e-02  6.0932e-04  1.2730e-03  2.6968e-04  0:02:15 1687
   314  6.1506e-04  1.7218e-03  4.9034e-04  3.5069e-02  6.1466e-04  1.2568e-03  2.6625e-04  0:01:48 1686
   315  6.1901e-04  1.7122e-03  4.7067e-04  3.4373e-02  6.1851e-04  1.2418e-03  2.6274e-04  0:07:03 1685
   316  6.2111e-04  1.7009e-03  4.4999e-04  3.3881e-02  6.2052e-04  1.2280e-03  2.5890e-04  0:05:38 1684
   317  6.2133e-04  1.6879e-03  4.2900e-04  3.3562e-02  6.2064e-04  1.2157e-03  2.5519e-04  0:04:30 1683
   318  6.1925e-04  1.6733e-03  4.0837e-04  3.3404e-02  6.1846e-04  1.2040e-03  2.5129e-04  0:03:36 1682
   319  6.1438e-04  1.6573e-03  3.8883e-04  3.3407e-02  6.1351e-04  1.1926e-03  2.4826e-04  0:02:53 1681

  iter  continuity  x-velocity  y-velocity  z-velocity      energy           k       omega     time/iter
   320  6.0656e-04  1.6401e-03  3.7057e-04  3.3531e-02  6.0563e-04  1.1807e-03  2.4532e-04  0:02:18 1680
   321  5.9623e-04  1.6223e-03  3.5535e-04  3.3734e-02  5.9525e-04  1.1686e-03  2.4237e-04  0:01:51 1679
   322  5.8356e-04  1.6048e-03  3.4356e-04  3.3966e-02  5.8255e-04  1.1565e-03  2.4043e-04  0:07:04 1678
   323  5.6877e-04  1.5880e-03  3.3574e-04  3.4215e-02  5.6776e-04  1.1436e-03  2.3844e-04  0:05:39 1677
   324  5.5208e-04  1.5724e-03  3.3215e-04  3.4499e-02  5.5109e-04  1.1322e-03  2.3723e-04  0:04:31 1676
   325  5.3409e-04  1.5586e-03  3.3263e-04  3.4823e-02  5.3316e-04  1.1212e-03  2.3664e-04  0:03:37 1675
   326  5.1522e-04  1.5473e-03  3.3683e-04  3.5174e-02  5.1436e-04  1.1121e-03  2.3684e-04  0:02:53 1674
   327  4.9611e-04  1.5388e-03  3.4416e-04  3.5523e-02  4.9535e-04  1.1034e-03  2.3620e-04  0:02:19 1673
   328  4.7739e-04  1.5336e-03  3.5391e-04  3.5853e-02  4.7673e-04  1.0962e-03  2.3560e-04  0:01:51 1672
   329  4.6012e-04  1.5318e-03  3.6536e-04  3.6130e-02  4.5958e-04  1.0895e-03  2.3710e-04  0:07:03 1671
   330  4.4520e-04  1.5334e-03  3.7791e-04  3.6345e-02  4.4478e-04  1.0826e-03  2.3865e-04  0:05:38 1670

  iter  continuity  x-velocity  y-velocity  z-velocity      energy           k       omega     time/iter
   331  4.3351e-04  1.5382e-03  3.9096e-04  3.6472e-02  4.3318e-04  1.0756e-03  2.3915e-04  0:04:30 1669
   332  4.2598e-04  1.5460e-03  4.0403e-04  3.6538e-02  4.2570e-04  1.0687e-03  2.3948e-04  0:03:36 1668
   333  4.2324e-04  1.5562e-03  4.1675e-04  3.6526e-02  4.2296e-04  1.0625e-03  2.3978e-04  0:02:53 1667
   334  4.2568e-04  1.5685e-03  4.2893e-04  3.6427e-02  4.2533e-04  1.0567e-03  2.4016e-04  0:02:18 1666
   335  4.3333e-04  1.5824e-03  4.4042e-04  3.6229e-02  4.3284e-04  1.0510e-03  2.4181e-04  0:01:50 1665
   336  4.4595e-04  1.5971e-03  4.5120e-04  3.5971e-02  4.4524e-04  1.0457e-03  2.4226e-04  0:07:01 1664
   337  4.6291e-04  1.6121e-03  4.6143e-04  3.5639e-02  4.6193e-04  1.0407e-03  2.4262e-04  0:05:37 1663
   338  4.8352e-04  1.6268e-03  4.7133e-04  3.5243e-02  4.8220e-04  1.0362e-03  2.4267e-04  0:04:29 1662
   339  5.0699e-04  1.6406e-03  4.8127e-04  3.4788e-02  5.0529e-04  1.0325e-03  2.4292e-04  0:03:35 1661
   340  5.3252e-04  1.6530e-03  4.9156e-04  3.4295e-02  5.3041e-04  1.0294e-03  2.4245e-04  0:02:52 1660
   341  5.5933e-04  1.6634e-03  5.0247e-04  3.3798e-02  5.5678e-04  1.0273e-03  2.4123e-04  0:02:18 1659

  iter  continuity  x-velocity  y-velocity  z-velocity      energy           k       omega     time/iter
   342  5.8668e-04  1.6715e-03  5.1455e-04  3.3274e-02  5.8368e-04  1.0251e-03  2.4035e-04  0:07:22 1658
   343  6.1424e-04  1.6770e-03  5.2781e-04  3.2745e-02  6.1078e-04  1.0227e-03  2.4001e-04  0:05:53 1657
   344  6.4132e-04  1.6797e-03  5.4257e-04  3.2199e-02  6.3738e-04  1.0201e-03  2.4004e-04  0:04:42 1656
   345  6.6741e-04  1.6796e-03  5.5912e-04  3.1666e-02  6.6301e-04  1.0163e-03  2.3934e-04  0:03:46 1655
   346  6.9206e-04  1.6765e-03  5.7765e-04  3.1155e-02  6.8719e-04  1.0121e-03  2.3677e-04  0:03:00 1654
   347  7.1502e-04  1.6706e-03  5.9833e-04  3.0838e-02  7.0969e-04  1.0052e-03  2.3519e-04  0:07:55 1653
   348  7.3606e-04  1.6619e-03  6.2103e-04  3.0569e-02  7.3027e-04  1.0014e-03  2.3401e-04  0:06:20 1652
   349  7.5496e-04  1.6506e-03  6.4562e-04  3.0366e-02  7.4873e-04  9.9659e-04  2.3324e-04  0:05:04 1651
   350  7.7173e-04  1.6371e-03  6.7183e-04  3.0260e-02  7.6508e-04  9.9191e-04  2.3232e-04  0:04:03 1650
   351  7.8627e-04  1.6219e-03  6.9946e-04  3.0249e-02  7.7922e-04  9.8820e-04  2.3083e-04  0:03:14 1649
   352  7.9851e-04  1.6051e-03  7.2827e-04  3.0349e-02  7.9107e-04  9.8511e-04  2.2911e-04  0:02:35 1648

  iter  continuity  x-velocity  y-velocity  z-velocity      energy           k       omega     time/iter
   353  8.0846e-04  1.5874e-03  7.5797e-04  3.0508e-02  8.0066e-04  9.8268e-04  2.2770e-04  0:07:33 1647
   354  8.1614e-04  1.5689e-03  7.8824e-04  3.0715e-02  8.0800e-04  9.8083e-04  2.2680e-04  0:06:03 1646
   355  8.2161e-04  1.5503e-03  8.1875e-04  3.0992e-02  8.1315e-04  9.7962e-04  2.2562e-04  0:04:50 1645
   356  8.2480e-04  1.5319e-03  8.4919e-04  3.1448e-02  8.1604e-04  9.7866e-04  2.2395e-04  0:03:52 1644
   357  8.2602e-04  1.5140e-03  8.7925e-04  3.2030e-02  8.1700e-04  9.7720e-04  2.2258e-04  0:03:05 1643
   358  8.2539e-04  1.4972e-03  9.0860e-04  3.2757e-02  8.1613e-04  9.7478e-04  2.2160e-04  0:02:28 1642
   359  8.2306e-04  1.4810e-03  9.3715e-04  3.3638e-02  8.1359e-04  9.7204e-04  2.1998e-04  0:07:27 1641
   360  8.1914e-04  1.4661e-03  9.6439e-04  3.4684e-02  8.0949e-04  9.6905e-04  2.1872e-04  0:05:57 1640
   361  8.1354e-04  1.4439e-03  9.8969e-04  3.5874e-02  8.0373e-04  9.6610e-04  2.1739e-04  0:04:45 1639
   362  8.0671e-04  1.4320e-03  1.0123e-03  3.7163e-02  7.9677e-04  9.6243e-04  2.1584e-04  0:03:48 1638
   363  7.9885e-04  1.4244e-03  1.0338e-03  3.8525e-02  7.8881e-04  9.5858e-04  2.1446e-04  0:03:02 1637

  iter  continuity  x-velocity  y-velocity  z-velocity      energy           k       omega     time/iter
   364  7.9007e-04  1.4195e-03  1.0539e-03  4.0127e-02  7.7995e-04  9.5494e-04  2.1288e-04  0:02:26 1636
   365  7.8055e-04  1.4166e-03  1.0725e-03  4.1929e-02  7.7039e-04  9.5122e-04  2.1103e-04  0:07:24 1635
   366  7.7045e-04  1.4154e-03  1.0890e-03  4.3728e-02  7.6024e-04  9.4643e-04  2.0956e-04  0:05:55 1634
   367  7.5984e-04  1.4158e-03  1.1032e-03  4.5460e-02  7.4963e-04  9.3973e-04  2.0821e-04  0:04:44 1633
   368  7.4890e-04  1.4175e-03  1.1151e-03  4.7111e-02  7.3869e-04  9.3350e-04  2.0633e-04  0:03:47 1632
   369  7.3775e-04  1.4202e-03  1.1245e-03  4.8658e-02  7.2755e-04  9.2718e-04  2.0462e-04  0:03:01 1631
   370  7.2651e-04  1.4236e-03  1.1316e-03  5.0108e-02  7.1634e-04  9.2065e-04  2.0344e-04  0:02:25 1630
   371  7.1553e-04  1.4275e-03  1.1364e-03  5.1433e-02  7.0539e-04  9.1333e-04  2.0233e-04  0:01:56 1629
   372  7.0485e-04  1.4315e-03  1.1390e-03  5.2669e-02  6.9476e-04  9.0597e-04  2.0071e-04  0:06:58 1628
   373  6.9453e-04  1.4354e-03  1.1394e-03  5.3950e-02  6.8449e-04  8.9867e-04  1.9958e-04  0:05:34 1627
   374  6.8465e-04  1.4387e-03  1.1379e-03  5.5104e-02  6.7467e-04  8.9116e-04  1.9810e-04  0:04:27 1626

  iter  continuity  x-velocity  y-velocity  z-velocity      energy           k       omega     time/iter
   375  6.7527e-04  1.4412e-03  1.1344e-03  5.6096e-02  6.6534e-04  8.8330e-04  1.9664e-04  0:03:34 1625
   376  6.6643e-04  1.4427e-03  1.1292e-03  5.6939e-02  6.5655e-04  8.7535e-04  1.9493e-04  0:02:51 1624
   377  6.5820e-04  1.4430e-03  1.1224e-03  5.7654e-02  6.4836e-04  8.6778e-04  1.9357e-04  0:07:41 1623
   378  6.5078e-04  1.4421e-03  1.1140e-03  5.8287e-02  6.4097e-04  8.5978e-04  1.9230e-04  0:06:09 1622
   379  6.4408e-04  1.4397e-03  1.1044e-03  5.8920e-02  6.3429e-04  8.5164e-04  1.9108e-04  0:04:55 1621
   380  6.3801e-04  1.4360e-03  1.0937e-03  5.9543e-02  6.2823e-04  8.4402e-04  1.8988e-04  0:03:56 1620
   381  6.3266e-04  1.4307e-03  1.0821e-03  6.0143e-02  6.2289e-04  8.3636e-04  1.8904e-04  0:03:08 1619
   382  6.2817e-04  1.4240e-03  1.0697e-03  6.0698e-02  6.1837e-04  8.2899e-04  1.8834e-04  0:07:54 1618
   383  6.2457e-04  1.4159e-03  1.0569e-03  6.1210e-02  6.1474e-04  8.2175e-04  1.8724e-04  0:06:19 1617
   384  6.2192e-04  1.4065e-03  1.0438e-03  6.1678e-02  6.1204e-04  8.1468e-04  1.8570e-04  0:05:03 1616
   385  6.2019e-04  1.3959e-03  1.0306e-03  6.2073e-02  6.1024e-04  8.0695e-04  1.8439e-04  0:04:02 1615

  iter  continuity  x-velocity  y-velocity  z-velocity      energy           k       omega     time/iter
   386  6.1941e-04  1.3843e-03  1.0176e-03  6.2408e-02  6.0939e-04  7.9737e-04  1.8373e-04  0:03:14 1614
   387  6.1959e-04  1.3718e-03  1.0049e-03  6.2689e-02  6.0947e-04  7.8770e-04  1.8350e-04  0:02:35 1613
   388  6.2070e-04  1.3585e-03  9.9278e-04  6.2932e-02  6.1049e-04  7.7809e-04  1.8344e-04  0:02:04 1612
   389  6.2278e-04  1.3448e-03  9.8141e-04  6.3145e-02  6.1245e-04  7.6824e-04  1.8314e-04  0:07:01 1611
   390  6.2580e-04  1.3306e-03  9.7101e-04  6.3326e-02  6.1534e-04  7.5848e-04  1.8255e-04  0:05:37 1610
   391  6.2977e-04  1.3163e-03  9.6174e-04  6.3490e-02  6.1916e-04  7.4875e-04  1.8182e-04  0:04:29 1609
   392  6.3458e-04  1.3019e-03  9.5375e-04  6.3618e-02  6.2383e-04  7.3876e-04  1.8126e-04  0:03:35 1608
   393  6.4027e-04  1.2878e-03  9.4717e-04  6.3732e-02  6.2935e-04  7.2842e-04  1.8066e-04  0:02:52 1607
   394  6.4677e-04  1.2740e-03  9.4209e-04  6.3847e-02  6.3569e-04  7.1804e-04  1.7988e-04  0:02:18 1606
   395  6.5404e-04  1.2607e-03  9.3855e-04  6.4001e-02  6.4279e-04  7.0811e-04  1.7953e-04  0:01:50 1605
   396  6.6199e-04  1.2481e-03  9.3662e-04  6.4163e-02  6.5056e-04  6.9822e-04  1.7921e-04  0:06:49 1604

  iter  continuity  x-velocity  y-velocity  z-velocity      energy           k       omega     time/iter
   397  6.7046e-04  1.2361e-03  9.3632e-04  6.4409e-02  6.5884e-04  6.8857e-04  1.7866e-04  0:05:27 1603
   398  6.7958e-04  1.2250e-03  9.3772e-04  6.4650e-02  6.6777e-04  6.7889e-04  1.7802e-04  0:04:21 1602
   399  6.8940e-04  1.2148e-03  9.4078e-04  6.4850e-02  6.7740e-04  6.6948e-04  1.7738e-04  0:03:29 1601
   400  6.9928e-04  1.2056e-03  9.4550e-04  6.5124e-02  6.8708e-04  6.6069e-04  1.7652e-04  0:02:47 1600
   401  7.0921e-04  1.1974e-03  9.5178e-04  6.5509e-02  6.9681e-04  6.5208e-04  1.7565e-04  0:02:14 1599
   402  7.1919e-04  1.1901e-03  9.5955e-04  6.5996e-02  7.0658e-04  6.4347e-04  1.7474e-04  0:07:06 1598
   403  7.2919e-04  1.1839e-03  9.6871e-04  6.6563e-02  7.1637e-04  6.3479e-04  1.7391e-04  0:05:41 1597
   404  7.3914e-04  1.1785e-03  9.7915e-04  6.7148e-02  7.2611e-04  6.2629e-04  1.7305e-04  0:04:33 1596
   405  7.4895e-04  1.1740e-03  9.9081e-04  6.7764e-02  7.3571e-04  6.1785e-04  1.7222e-04  0:03:38 1595
   406  7.5848e-04  1.1703e-03  1.0036e-03  6.8393e-02  7.4503e-04  6.0962e-04  1.7109e-04  0:02:54 1594
   407  7.6758e-04  1.1674e-03  1.0173e-03  6.9024e-02  7.5392e-04  6.0142e-04  1.6950e-04  0:02:19 1593

  iter  continuity  x-velocity  y-velocity  z-velocity      energy           k       omega     time/iter
   408  7.7620e-04  1.1651e-03  1.0318e-03  6.9628e-02  7.6234e-04  5.9348e-04  1.6794e-04  0:07:10 1592
   409  7.8446e-04  1.1634e-03  1.0470e-03  7.0199e-02  7.7040e-04  5.8612e-04  1.6623e-04  0:05:44 1591
   410  7.9202e-04  1.1623e-03  1.0628e-03  7.0772e-02  7.7776e-04  5.7900e-04  1.6456e-04  0:04:35 1590
   411  7.9867e-04  1.1617e-03  1.0790e-03  7.1044e-02  7.8422e-04  5.7194e-04  1.6330e-04  0:03:40 1589
   412  8.0435e-04  1.1615e-03  1.0956e-03  7.1194e-02  7.8971e-04  5.6542e-04  1.6167e-04  0:02:56 1588
   413  8.0922e-04  1.1617e-03  1.1124e-03  7.1058e-02  7.9440e-04  5.5799e-04  1.5978e-04  0:02:20 1587
   414  8.1306e-04  1.1625e-03  1.1294e-03  7.0847e-02  7.9806e-04  5.5049e-04  1.5790e-04  0:07:09 1586
   415  8.1576e-04  1.1638e-03  1.1464e-03  7.0524e-02  8.0059e-04  5.4319e-04  1.5595e-04  0:05:43 1585
   416  8.1736e-04  1.1657e-03  1.1634e-03  7.0094e-02  8.0203e-04  5.3622e-04  1.5385e-04  0:04:34 1584
   417  8.1788e-04  1.1681e-03  1.1801e-03  6.9558e-02  8.0239e-04  5.2933e-04  1.5161e-04  0:03:39 1583
   418  8.1740e-04  1.1711e-03  1.1966e-03  6.8916e-02  8.0177e-04  5.2201e-04  1.4934e-04  0:02:55 1582

  iter  continuity  x-velocity  y-velocity  z-velocity      energy           k       omega     time/iter
   419  8.1593e-04  1.1746e-03  1.2126e-03  6.8155e-02  8.0016e-04  5.1476e-04  1.4729e-04  0:02:20 1581
   420  8.1342e-04  1.1787e-03  1.2281e-03  6.7285e-02  7.9753e-04  5.0758e-04  1.4503e-04  0:07:08 1580
   421  8.1009e-04  1.1833e-03  1.2429e-03  6.6345e-02  7.9408e-04  5.0031e-04  1.4320e-04  0:05:42 1579
   422  8.0585e-04  1.1887e-03  1.2568e-03  6.5232e-02  7.8974e-04  4.9294e-04  1.4130e-04  0:04:34 1578
   423  8.0063e-04  1.1947e-03  1.2699e-03  6.3942e-02  7.8443e-04  4.8552e-04  1.3941e-04  0:03:39 1577
   424  7.9451e-04  1.2012e-03  1.2819e-03  6.2643e-02  7.7824e-04  4.7827e-04  1.3740e-04  0:08:10 1576
   425  7.8758e-04  1.2082e-03  1.2929e-03  6.1438e-02  7.7123e-04  4.7127e-04  1.3549e-04  0:06:32 1575
   426  7.7994e-04  1.2156e-03  1.3027e-03  6.0367e-02  7.6355e-04  4.6444e-04  1.3379e-04  0:05:13 1574
   427  7.7163e-04  1.2234e-03  1.3115e-03  5.9393e-02  7.5519e-04  4.5681e-04  1.3235e-04  0:04:10 1573
   428  7.6274e-04  1.2315e-03  1.3190e-03  5.8496e-02  7.4628e-04  4.4942e-04  1.3102e-04  0:03:20 1572
   429  7.5334e-04  1.2398e-03  1.3252e-03  5.7647e-02  7.3687e-04  4.4223e-04  1.2982e-04  0:02:40 1571

  iter  continuity  x-velocity  y-velocity  z-velocity      energy           k       omega     time/iter
   430  7.4353e-04  1.2481e-03  1.3303e-03  5.6834e-02  7.2705e-04  4.3504e-04  1.2842e-04  0:07:22 1570
   431  7.3338e-04  1.2565e-03  1.3340e-03  5.6044e-02  7.1691e-04  4.2786e-04  1.2700e-04  0:05:53 1569
   432  7.2296e-04  1.2646e-03  1.3365e-03  5.5252e-02  7.0651e-04  4.2073e-04  1.2559e-04  0:04:43 1568
   433  7.1232e-04  1.2725e-03  1.3378e-03  5.4459e-02  6.9591e-04  4.1357e-04  1.2398e-04  0:03:46 1567
   434  7.0156e-04  1.2799e-03  1.3378e-03  5.3650e-02  6.8519e-04  4.0653e-04  1.2252e-04  0:03:01 1566
   435  6.9073e-04  1.2868e-03  1.3366e-03  5.2847e-02  6.7441e-04  3.9960e-04  1.2115e-04  0:02:24 1565
   436  6.7987e-04  1.2931e-03  1.3342e-03  5.2084e-02  6.6361e-04  3.9283e-04  1.1982e-04  0:01:55 1564
   437  6.6904e-04  1.2987e-03  1.3305e-03  5.1392e-02  6.5286e-04  3.8627e-04  1.1847e-04  0:06:45 1563
   438  6.5836e-04  1.3034e-03  1.3257e-03  5.0808e-02  6.4226e-04  3.7976e-04  1.1703e-04  0:05:24 1562
   439  6.4785e-04  1.3073e-03  1.3198e-03  5.0370e-02  6.3184e-04  3.7323e-04  1.1520e-04  0:04:19 1561
   440  6.3756e-04  1.3101e-03  1.3129e-03  5.0087e-02  6.2164e-04  3.6677e-04  1.1333e-04  0:03:27 1560

  iter  continuity  x-velocity  y-velocity  z-velocity      energy           k       omega     time/iter
   441  6.2754e-04  1.3119e-03  1.3049e-03  4.9950e-02  6.1172e-04  3.6036e-04  1.1175e-04  0:02:45 1559
   442  6.1783e-04  1.3126e-03  1.2960e-03  4.9983e-02  6.0211e-04  3.5389e-04  1.1032e-04  0:07:24 1558
   443  6.0850e-04  1.3122e-03  1.2863e-03  5.0168e-02  5.9289e-04  3.4715e-04  1.0895e-04  0:05:55 1557
   444  5.9959e-04  1.3106e-03  1.2757e-03  5.0445e-02  5.8408e-04  3.4040e-04  1.0761e-04  0:04:44 1556
   445  5.9110e-04  1.3079e-03  1.2645e-03  5.0770e-02  5.7570e-04  3.3384e-04  1.0635e-04  0:03:47 1555
   446  5.8308e-04  1.3040e-03  1.2526e-03  5.1183e-02  5.6780e-04  3.2747e-04  1.0492e-04  0:03:01 1554
   447  5.7559e-04  1.2990e-03  1.2401e-03  5.1627e-02  5.6043e-04  3.2145e-04  1.0399e-04  0:02:25 1553
   448  5.6866e-04  1.2929e-03  1.2272e-03  5.2053e-02  5.5361e-04  3.1554e-04  1.0300e-04  0:07:06 1552
   449  5.6226e-04  1.2856e-03  1.2138e-03  5.2414e-02  5.4732e-04  3.0979e-04  1.0200e-04  0:05:41 1551
   450  5.5639e-04  1.2773e-03  1.2001e-03  5.2660e-02  5.4156e-04  3.0430e-04  1.0105e-04  0:04:32 1550
   451  5.5107e-04  1.2679e-03  1.1860e-03  5.2745e-02  5.3635e-04  2.9912e-04  1.0012e-04  0:03:38 1549

  iter  continuity  x-velocity  y-velocity  z-velocity      energy           k       omega     time/iter
   452  5.4630e-04  1.2576e-03  1.1718e-03  5.2652e-02  5.3170e-04  2.9418e-04  9.9268e-05  0:02:54 1548
   453  5.4206e-04  1.2464e-03  1.1575e-03  5.2451e-02  5.2756e-04  2.8958e-04  9.8455e-05  0:07:29 1547
   454  5.3838e-04  1.2344e-03  1.1432e-03  5.2112e-02  5.2397e-04  2.8527e-04  9.7704e-05  0:05:59 1546
   455  5.3523e-04  1.2216e-03  1.1290e-03  5.1669e-02  5.2093e-04  2.8108e-04  9.6812e-05  0:04:47 1545
   456  5.3262e-04  1.2082e-03  1.1149e-03  5.1145e-02  5.1840e-04  2.7686e-04  9.6071e-05  0:03:49 1544
   457  5.3051e-04  1.1943e-03  1.1011e-03  5.0567e-02  5.1638e-04  2.7270e-04  9.5308e-05  0:03:03 1543
   458  5.2888e-04  1.1799e-03  1.0877e-03  4.9984e-02  5.1484e-04  2.6869e-04  9.4596e-05  0:02:27 1542
   459  5.2770e-04  1.1652e-03  1.0746e-03  4.9363e-02  5.1375e-04  2.6479e-04  9.3916e-05  0:07:05 1541
   460  5.2697e-04  1.1502e-03  1.0621e-03  4.8692e-02  5.1308e-04  2.6102e-04  9.3207e-05  0:05:40 1540
   461  5.2663e-04  1.1351e-03  1.0501e-03  4.7975e-02  5.1282e-04  2.5745e-04  9.2510e-05  0:04:32 1539
   462  5.2666e-04  1.1201e-03  1.0388e-03  4.7266e-02  5.1292e-04  2.5400e-04  9.1814e-05  0:03:37 1538

  iter  continuity  x-velocity  y-velocity  z-velocity      energy           k       omega     time/iter
   463  5.2703e-04  1.1050e-03  1.0280e-03  4.6518e-02  5.1335e-04  2.5058e-04  9.1131e-05  0:02:54 1537
   464  5.2770e-04  1.0901e-03  1.0180e-03  4.6323e-02  5.1407e-04  2.4721e-04  9.0462e-05  0:07:26 1536
   465  5.2863e-04  1.0755e-03  1.0087e-03  4.6117e-02  5.1505e-04  2.4392e-04  8.9820e-05  0:05:57 1535
   466  5.2977e-04  1.0611e-03  1.0001e-03  4.5290e-02  5.1624e-04  2.4063e-04  8.9145e-05  0:04:45 1534
   467  5.3110e-04  1.0471e-03  9.9219e-04  4.4322e-02  5.1762e-04  2.3739e-04  8.8418e-05  0:03:48 1533
   468  5.3252e-04  1.0336e-03  9.8504e-04  4.3378e-02  5.1908e-04  2.3429e-04  8.7626e-05  0:03:02 1532
   469  5.3399e-04  1.0205e-03  9.7862e-04  4.2533e-02  5.2058e-04  2.3131e-04  8.7070e-05  0:07:32 1531
   470  5.3548e-04  1.0080e-03  9.7292e-04  4.1773e-02  5.2210e-04  2.2836e-04  8.6588e-05  0:06:01 1530
   471  5.3695e-04  9.9612e-04  9.6791e-04  4.1084e-02  5.2360e-04  2.2548e-04  8.6083e-05  0:04:49 1529
   472  5.3835e-04  9.8485e-04  9.6359e-04  4.0455e-02  5.2502e-04  2.2264e-04  8.5520e-05  0:03:51 1528
   473  5.3962e-04  9.7425e-04  9.5993e-04  3.9882e-02  5.2631e-04  2.1984e-04  8.4835e-05  0:03:05 1527

  iter  continuity  x-velocity  y-velocity  z-velocity      energy           k       omega     time/iter
   474  5.4072e-04  9.6432e-04  9.5690e-04  3.9347e-02  5.2743e-04  2.1721e-04  8.4169e-05  0:07:33 1526
   475  5.4161e-04  9.5509e-04  9.5447e-04  3.8849e-02  5.2833e-04  2.1477e-04  8.3448e-05  0:06:02 1525
   476  5.4219e-04  9.4656e-04  9.5260e-04  3.8377e-02  5.2892e-04  2.1239e-04  8.2650e-05  0:04:49 1524
   477  5.4249e-04  9.3874e-04  9.5125e-04  3.7932e-02  5.2923e-04  2.1007e-04  8.1905e-05  0:03:51 1523
   478  5.4246e-04  9.3161e-04  9.5037e-04  3.7517e-02  5.2921e-04  2.0778e-04  8.1200e-05  0:03:05 1522
   479  5.4208e-04  9.2518e-04  9.4991e-04  3.7294e-02  5.2884e-04  2.0550e-04  8.0433e-05  0:02:28 1521
   480  5.4132e-04  9.1943e-04  9.4981e-04  3.7083e-02  5.2809e-04  2.0323e-04  7.9558e-05  0:07:02 1520
   481  5.4015e-04  9.1435e-04  9.5001e-04  3.6726e-02  5.2693e-04  2.0109e-04  7.8671e-05  0:05:38 1519
   482  5.3854e-04  9.0993e-04  9.5046e-04  3.6347e-02  5.2533e-04  1.9894e-04  7.7842e-05  0:04:30 1518
   483  5.3648e-04  9.0616e-04  9.5109e-04  3.6002e-02  5.2328e-04  1.9678e-04  7.7017e-05  0:03:36 1517
   484  5.3395e-04  9.0301e-04  9.5184e-04  3.5694e-02  5.2076e-04  1.9497e-04  7.6201e-05  0:02:52 1516

  iter  continuity  x-velocity  y-velocity  z-velocity      energy           k       omega     time/iter
   485  5.3094e-04  9.0047e-04  9.5267e-04  3.5411e-02  5.1776e-04  1.9318e-04  7.5224e-05  0:07:21 1515
   486  5.2746e-04  8.9850e-04  9.5350e-04  3.5159e-02  5.1430e-04  1.9141e-04  7.4105e-05  0:05:52 1514
   487  5.2352e-04  8.9706e-04  9.5429e-04  3.4920e-02  5.1037e-04  1.8965e-04  7.3033e-05  0:04:42 1513
   488  5.1911e-04  8.9614e-04  9.5497e-04  3.4694e-02  5.0598e-04  1.8787e-04  7.2089e-05  0:03:45 1512
   489  5.1424e-04  8.9569e-04  9.5550e-04  3.4487e-02  5.0114e-04  1.8594e-04  7.1208e-05  0:03:00 1511
   490  5.0894e-04  8.9568e-04  9.5581e-04  3.4303e-02  4.9586e-04  1.8393e-04  7.0340e-05  0:02:24 1510
   491  5.0321e-04  8.9608e-04  9.5586e-04  3.4132e-02  4.9017e-04  1.8190e-04  6.9443e-05  0:06:57 1509
   492  4.9710e-04  8.9684e-04  9.5560e-04  3.3988e-02  4.8408e-04  1.7997e-04  6.8546e-05  0:05:33 1508
   493  4.9061e-04  8.9792e-04  9.5499e-04  3.3834e-02  4.7763e-04  1.7811e-04  6.7605e-05  0:04:26 1507
   494  4.8379e-04  8.9928e-04  9.5398e-04  3.3660e-02  4.7085e-04  1.7626e-04  6.6640e-05  0:03:33 1506
   495  4.7666e-04  9.0088e-04  9.5254e-04  3.3471e-02  4.6377e-04  1.7432e-04  6.5589e-05  0:02:50 1505

  iter  continuity  x-velocity  y-velocity  z-velocity      energy           k       omega     time/iter
   496  4.6926e-04  9.0264e-04  9.5064e-04  3.3273e-02  4.5643e-04  1.7236e-04  6.4562e-05  0:07:17 1504
   497  4.6163e-04  9.0449e-04  9.4826e-04  3.3071e-02  4.4885e-04  1.7019e-04  6.3542e-05  0:05:49 1503
   498  4.5380e-04  9.0640e-04  9.4536e-04  3.2860e-02  4.4109e-04  1.6753e-04  6.2520e-05  0:04:39 1502
   499  4.4583e-04  9.0829e-04  9.4193e-04  3.2713e-02  4.3318e-04  1.6484e-04  6.1498e-05  0:03:43 1501
   500  4.3774e-04  9.1010e-04  9.3796e-04  3.2554e-02  4.2516e-04  1.6215e-04  6.0535e-05  0:02:59 1500
   501  4.2958e-04  9.1177e-04  9.3344e-04  3.2312e-02  4.1708e-04  1.5942e-04  5.9590e-05  0:02:23 1499
   502  4.2139e-04  9.1324e-04  9.2836e-04  3.2039e-02  4.0897e-04  1.5672e-04  5.8494e-05  0:06:54 1498
   503  4.1321e-04  9.1443e-04  9.2271e-04  3.1782e-02  4.0088e-04  1.5406e-04  5.7569e-05  0:05:31 1497
   504  4.0509e-04  9.1527e-04  9.1650e-04  3.1566e-02  3.9286e-04  1.5147e-04  5.6649e-05  0:04:24 1496
   505  3.9706e-04  9.1572e-04  9.0974e-04  3.1389e-02  3.8493e-04  1.4893e-04  5.5653e-05  0:03:31 1495
   506  3.8917e-04  9.1569e-04  9.0243e-04  3.1246e-02  3.7713e-04  1.4643e-04  5.4698e-05  0:02:49 1494

  iter  continuity  x-velocity  y-velocity  z-velocity      energy           k       omega     time/iter
   507  3.8144e-04  9.1516e-04  8.9458e-04  3.1123e-02  3.6952e-04  1.4403e-04  5.3815e-05  0:07:14 1493
   508  3.7392e-04  9.1407e-04  8.8622e-04  3.1005e-02  3.6211e-04  1.4176e-04  5.2955e-05  0:05:47 1492
   509  3.6663e-04  9.1240e-04  8.7736e-04  3.0884e-02  3.5494e-04  1.3953e-04  5.2069e-05  0:04:37 1491
   510  3.5961e-04  9.1010e-04  8.6803e-04  3.0752e-02  3.4803e-04  1.3739e-04  5.1174e-05  0:03:42 1490
   511  3.5287e-04  9.0714e-04  8.5826e-04  3.0612e-02  3.4142e-04  1.3530e-04  5.0314e-05  0:02:57 1489
   512  3.4644e-04  9.0350e-04  8.4808e-04  3.0468e-02  3.3512e-04  1.3328e-04  4.9445e-05  0:02:22 1488
   513  3.4033e-04  8.9917e-04  8.3753e-04  3.0316e-02  3.2914e-04  1.3127e-04  4.8407e-05  0:06:51 1487
   514  3.3455e-04  8.9414e-04  8.2665e-04  3.0152e-02  3.2349e-04  1.2933e-04  4.7292e-05  0:05:28 1486
   515  3.2911e-04  8.8841e-04  8.1548e-04  2.9980e-02  3.1819e-04  1.2747e-04  4.6409e-05  0:04:22 1485
   516  3.2402e-04  8.8199e-04  8.0407e-04  2.9797e-02  3.1323e-04  1.2567e-04  4.5581e-05  0:03:30 1484
   517  3.1928e-04  8.7490e-04  7.9246e-04  2.9607e-02  3.0862e-04  1.2390e-04  4.4762e-05  0:02:48 1483

  iter  continuity  x-velocity  y-velocity  z-velocity      energy           k       omega     time/iter
   518  3.1487e-04  8.6716e-04  7.8070e-04  2.9403e-02  3.0436e-04  1.2212e-04  4.3894e-05  0:07:11 1482
   519  3.1082e-04  8.5881e-04  7.6884e-04  2.9188e-02  3.0044e-04  1.2037e-04  4.3065e-05  0:05:44 1481
   520  3.0711e-04  8.4988e-04  7.5693e-04  2.8961e-02  2.9686e-04  1.1863e-04  4.2251e-05  0:04:35 1480
   521  3.0373e-04  8.4041e-04  7.4503e-04  2.8727e-02  2.9361e-04  1.1687e-04  4.1409e-05  0:03:40 1479
   522  3.0069e-04  8.3045e-04  7.3317e-04  2.8487e-02  2.9070e-04  1.1515e-04  4.0658e-05  0:02:56 1478
   523  2.9796e-04  8.2005e-04  7.2141e-04  2.8244e-02  2.8810e-04  1.1344e-04  3.9946e-05  0:02:21 1477
   524  2.9555e-04  8.0926e-04  7.0980e-04  2.7993e-02  2.8581e-04  1.1173e-04  3.9305e-05  0:06:48 1476
   525  2.9343e-04  7.9815e-04  6.9838e-04  2.7738e-02  2.8381e-04  1.1008e-04  3.8681e-05  0:05:26 1475
   526  2.9159e-04  7.8677e-04  6.8718e-04  2.7486e-02  2.8209e-04  1.0846e-04  3.8023e-05  0:04:21 1474
   527  2.9002e-04  7.7518e-04  6.7626e-04  2.7225e-02  2.8062e-04  1.0688e-04  3.7396e-05  0:03:28 1473
   528  2.8869e-04  7.6345e-04  6.6566e-04  2.6961e-02  2.7941e-04  1.0540e-04  3.6780e-05  0:02:46 1472

  iter  continuity  x-velocity  y-velocity  z-velocity      energy           k       omega     time/iter
   529  2.8760e-04  7.5165e-04  6.5541e-04  2.6694e-02  2.7842e-04  1.0386e-04  3.6179e-05  0:02:13 1471
   530  2.8672e-04  7.3983e-04  6.4555e-04  2.6429e-02  2.7763e-04  1.0232e-04  3.5611e-05  0:06:40 1470
   531  2.8602e-04  7.2807e-04  6.3609e-04  2.6163e-02  2.7704e-04  1.0078e-04  3.5079e-05  0:05:20 1469
   532  2.8550e-04  7.1641e-04  6.2706e-04  2.5894e-02  2.7660e-04  9.9257e-05  3.4568e-05  0:04:16 1468
   533  2.8512e-04  7.0493e-04  6.1850e-04  2.5623e-02  2.7631e-04  9.7735e-05  3.4060e-05  0:03:25 1467
   534  2.8487e-04  6.9366e-04  6.1041e-04  2.5345e-02  2.7614e-04  9.6284e-05  3.3568e-05  0:02:44 1466
   535  2.8471e-04  6.8267e-04  6.0280e-04  2.5064e-02  2.7606e-04  9.4906e-05  3.3097e-05  0:07:04 1465
   536  2.8463e-04  6.7199e-04  5.9569e-04  2.4778e-02  2.7605e-04  9.3602e-05  3.2615e-05  0:05:39 1464
   537  2.8459e-04  6.6167e-04  5.8907e-04  2.4488e-02  2.7609e-04  9.2364e-05  3.2120e-05  0:04:31 1463
   538  2.8458e-04  6.5173e-04  5.8294e-04  2.4195e-02  2.7614e-04  9.1177e-05  3.1640e-05  0:03:37 1462
   539  2.8456e-04  6.4222e-04  5.7729e-04  2.3901e-02  2.7618e-04  8.9999e-05  3.1164e-05  0:02:53 1461

  iter  continuity  x-velocity  y-velocity  z-velocity      energy           k       omega     time/iter
   540  2.8451e-04  6.3314e-04  5.7212e-04  2.3604e-02  2.7619e-04  8.8860e-05  3.0708e-05  0:07:10 1460
   541  2.8440e-04  6.2454e-04  5.6741e-04  2.3308e-02  2.7614e-04  8.7733e-05  3.0254e-05  0:05:44 1459
   542  2.8421e-04  6.1643e-04  5.6313e-04  2.3009e-02  2.7600e-04  8.6619e-05  2.9815e-05  0:04:35 1458
   543  2.8392e-04  6.0882e-04  5.5926e-04  2.2706e-02  2.7576e-04  8.5526e-05  2.9394e-05  0:03:40 1457
   544  2.8350e-04  6.0172e-04  5.5579e-04  2.2398e-02  2.7540e-04  8.4456e-05  2.8993e-05  0:02:56 1456
   545  2.8294e-04  5.9512e-04  5.5267e-04  2.2086e-02  2.7488e-04  8.3394e-05  2.8598e-05  0:02:21 1455
   546  2.8222e-04  5.8904e-04  5.4988e-04  2.1772e-02  2.7420e-04  8.2361e-05  2.8229e-05  0:06:43 1454
   547  2.8131e-04  5.8346e-04  5.4738e-04  2.1455e-02  2.7334e-04  8.1363e-05  2.7870e-05  0:05:22 1453
   548  2.8021e-04  5.7837e-04  5.4515e-04  2.1137e-02  2.7228e-04  8.0390e-05  2.7516e-05  0:04:18 1452
   549  2.7890e-04  5.7378e-04  5.4314e-04  2.0817e-02  2.7101e-04  7.9428e-05  2.7183e-05  0:03:26 1451
   550  2.7738e-04  5.6966e-04  5.4132e-04  2.0496e-02  2.6953e-04  7.8484e-05  2.6878e-05  0:02:45 1450

  iter  continuity  x-velocity  y-velocity  z-velocity      energy           k       omega     time/iter
   551  2.7563e-04  5.6599e-04  5.3966e-04  2.0187e-02  2.6782e-04  7.7547e-05  2.6601e-05  0:07:01 1449
   552  2.7365e-04  5.6278e-04  5.3811e-04  1.9870e-02  2.6588e-04  7.6606e-05  2.6343e-05  0:05:37 1448
   553  2.7144e-04  5.5999e-04  5.3665e-04  1.9549e-02  2.6370e-04  7.5650e-05  2.6084e-05  0:04:29 1447
   554  2.6900e-04  5.5761e-04  5.3524e-04  1.9226e-02  2.6130e-04  7.4694e-05  2.5843e-05  0:03:35 1446
   555  2.6634e-04  5.5560e-04  5.3384e-04  1.8898e-02  2.5868e-04  7.3744e-05  2.5631e-05  0:02:52 1445
   556  2.6346e-04  5.5394e-04  5.3242e-04  1.8574e-02  2.5584e-04  7.2803e-05  2.5421e-05  0:07:06 1444
   557  2.6037e-04  5.5261e-04  5.3096e-04  1.8253e-02  2.5279e-04  7.1907e-05  2.5223e-05  0:05:41 1443
   558  2.5708e-04  5.5157e-04  5.2941e-04  1.7935e-02  2.4954e-04  7.1031e-05  2.5037e-05  0:04:33 1442
   559  2.5361e-04  5.5079e-04  5.2776e-04  1.7615e-02  2.4611e-04  7.0169e-05  2.4844e-05  0:03:38 1441
   560  2.4997e-04  5.5024e-04  5.2597e-04  1.7300e-02  2.4251e-04  6.9314e-05  2.4634e-05  0:02:54 1440
   561  2.4618e-04  5.4988e-04  5.2402e-04  1.6986e-02  2.3877e-04  6.8479e-05  2.4422e-05  0:02:19 1439

  iter  continuity  x-velocity  y-velocity  z-velocity      energy           k       omega     time/iter
   562  2.4226e-04  5.4967e-04  5.2189e-04  1.6675e-02  2.3489e-04  6.7684e-05  2.4201e-05  0:06:39 1438
   563  2.3823e-04  5.4957e-04  5.1955e-04  1.6370e-02  2.3092e-04  6.6935e-05  2.3982e-05  0:05:19 1437
   564  2.3411e-04  5.4954e-04  5.1699e-04  1.6068e-02  2.2685e-04  6.6191e-05  2.3779e-05  0:04:15 1436
   565  2.2992e-04  5.4955e-04  5.1420e-04  1.5770e-02  2.2271e-04  6.5489e-05  2.3566e-05  0:03:24 1435
   566  2.2568e-04  5.4955e-04  5.1116e-04  1.5477e-02  2.1852e-04  6.4853e-05  2.3343e-05  0:02:43 1434
   567  2.2140e-04  5.4951e-04  5.0786e-04  1.5187e-02  2.1430e-04  6.4256e-05  2.3122e-05  0:06:57 1433
   568  2.1712e-04  5.4939e-04  5.0430e-04  1.4899e-02  2.1007e-04  6.3657e-05  2.2918e-05  0:05:33 1432
   569  2.1284e-04  5.4917e-04  5.0047e-04  1.4611e-02  2.0586e-04  6.3101e-05  2.2717e-05  0:04:26 1431
   570  2.0859e-04  5.4879e-04  4.9639e-04  1.4326e-02  2.0167e-04  6.2553e-05  2.2513e-05  0:03:33 1430
   571  2.0438e-04  5.4825e-04  4.9206e-04  1.4043e-02  1.9753e-04  6.1997e-05  2.2322e-05  0:02:50 1429
   572  2.0024e-04  5.4751e-04  4.8747e-04  1.3767e-02  1.9346e-04  6.1452e-05  2.2148e-05  0:07:02 1428

  iter  continuity  x-velocity  y-velocity  z-velocity      energy           k       omega     time/iter
   573  1.9619e-04  5.4654e-04  4.8264e-04  1.3517e-02  1.8947e-04  6.0930e-05  2.1979e-05  0:05:37 1427
   574  1.9223e-04  5.4532e-04  4.7757e-04  1.3277e-02  1.8559e-04  6.0400e-05  2.1809e-05  0:04:30 1426
   575  1.8839e-04  5.4384e-04  4.7229e-04  1.3026e-02  1.8182e-04  5.9866e-05  2.1656e-05  0:03:35 1425
   576  1.8468e-04  5.4207e-04  4.6678e-04  1.2772e-02  1.7819e-04  5.9358e-05  2.1507e-05  0:02:52 1424
   577  1.8112e-04  5.4001e-04  4.6108e-04  1.2521e-02  1.7470e-04  5.8858e-05  2.1391e-05  0:07:02 1423
   578  1.7770e-04  5.3763e-04  4.5519e-04  1.2274e-02  1.7136e-04  5.8349e-05  2.1280e-05  0:05:38 1422
   579  1.7445e-04  5.3495e-04  4.4914e-04  1.2034e-02  1.6819e-04  5.7873e-05  2.1154e-05  0:04:30 1421
   580  1.7137e-04  5.3195e-04  4.4293e-04  1.1802e-02  1.6520e-04  5.7400e-05  2.1028e-05  0:03:36 1420
   581  1.6847e-04  5.2863e-04  4.3659e-04  1.1581e-02  1.6237e-04  5.6935e-05  2.0894e-05  0:02:52 1419
   582  1.6574e-04  5.2500e-04  4.3013e-04  1.1374e-02  1.5973e-04  5.6491e-05  2.0774e-05  0:07:01 1418
   583  1.6319e-04  5.2107e-04  4.2359e-04  1.1178e-02  1.5727e-04  5.6058e-05  2.0672e-05  0:05:37 1417

  iter  continuity  x-velocity  y-velocity  z-velocity      energy           k       omega     time/iter
   584  1.6083e-04  5.1684e-04  4.1698e-04  1.0991e-02  1.5499e-04  5.5613e-05  2.0584e-05  0:04:29 1416
   585  1.5863e-04  5.1233e-04  4.1033e-04  1.0813e-02  1.5287e-04  5.5172e-05  2.0489e-05  0:03:35 1415
   586  1.5662e-04  5.0756e-04  4.0366e-04  1.0646e-02  1.5095e-04  5.4711e-05  2.0378e-05  0:02:52 1414
   587  1.5479e-04  5.0255e-04  3.9700e-04  1.0489e-02  1.4920e-04  5.4279e-05  2.0268e-05  0:02:18 1413
   588  1.5313e-04  4.9731e-04  3.9037e-04  1.0348e-02  1.4762e-04  5.3839e-05  2.0171e-05  0:06:32 1412
   589  1.5164e-04  4.9188e-04  3.8380e-04  1.0217e-02  1.4621e-04  5.3390e-05  2.0086e-05  0:05:14 1411
   590  1.5030e-04  4.8628e-04  3.7730e-04  1.0090e-02  1.4495e-04  5.2927e-05  2.0020e-05  0:04:11 1410
   591  1.4912e-04  4.8054e-04  3.7091e-04  9.9681e-03  1.4385e-04  5.2477e-05  1.9957e-05  0:03:20 1409
   592  1.4808e-04  4.7468e-04  3.6464e-04  9.8564e-03  1.4288e-04  5.2017e-05  1.9898e-05  0:02:40 1408
   593  1.4717e-04  4.6874e-04  3.5852e-04  9.7524e-03  1.4205e-04  5.1613e-05  1.9849e-05  0:06:50 1407
   594  1.4640e-04  4.6273e-04  3.5257e-04  9.6566e-03  1.4135e-04  5.1197e-05  1.9809e-05  0:05:27 1406

  iter  continuity  x-velocity  y-velocity  z-velocity      energy           k       omega     time/iter
   595  1.4574e-04  4.5670e-04  3.4680e-04  9.5714e-03  1.4075e-04  5.0779e-05  1.9777e-05  0:04:22 1405
   596  1.4518e-04  4.5067e-04  3.4122e-04  9.4931e-03  1.4027e-04  5.0351e-05  1.9738e-05  0:03:29 1404
   597  1.4473e-04  4.4467e-04  3.3586e-04  9.4227e-03  1.3988e-04  4.9953e-05  1.9704e-05  0:02:47 1403
   598  1.4436e-04  4.3872e-04  3.3072e-04  9.3593e-03  1.3957e-04  4.9583e-05  1.9681e-05  0:06:54 1402
   599  1.4407e-04  4.3285e-04  3.2581e-04  9.3058e-03  1.3934e-04  4.9259e-05  1.9648e-05  0:05:31 1401
   600  1.4383e-04  4.2709e-04  3.2115e-04  9.2549e-03  1.3916e-04  4.8937e-05  1.9621e-05  0:04:25 1400
   601  1.4365e-04  4.2145e-04  3.1672e-04  9.2108e-03  1.3904e-04  4.8595e-05  1.9606e-05  0:03:32 1399
   602  1.4351e-04  4.1596e-04  3.1255e-04  9.1717e-03  1.3895e-04  4.8238e-05  1.9600e-05  0:02:49 1398
   603  1.4340e-04  4.1063e-04  3.0863e-04  9.1371e-03  1.3888e-04  4.7881e-05  1.9609e-05  0:02:15 1397
   604  1.4330e-04  4.0548e-04  3.0495e-04  9.1022e-03  1.3883e-04  4.7560e-05  1.9624e-05  0:06:27 1396
   605  1.4320e-04  4.0053e-04  3.0152e-04  9.0720e-03  1.3879e-04  4.7289e-05  1.9642e-05  0:05:10 1395

  iter  continuity  x-velocity  y-velocity  z-velocity      energy           k       omega     time/iter
   606  1.4310e-04  3.9577e-04  2.9832e-04  9.0557e-03  1.3873e-04  4.7012e-05  1.9664e-05  0:04:08 1394
   607  1.4298e-04  3.9123e-04  2.9536e-04  9.0314e-03  1.3864e-04  4.6753e-05  1.9694e-05  0:03:18 1393
   608  1.4282e-04  3.8691e-04  2.9263e-04  9.0074e-03  1.3853e-04  4.6495e-05  1.9736e-05  0:02:38 1392
   609  1.4263e-04  3.8282e-04  2.9010e-04  8.9767e-03  1.3837e-04  4.6294e-05  1.9784e-05  0:06:45 1391
   610  1.4238e-04  3.7895e-04  2.8778e-04  8.9451e-03  1.3816e-04  4.6102e-05  1.9835e-05  0:05:23 1390
   611  1.4207e-04  3.7531e-04  2.8564e-04  8.9126e-03  1.3789e-04  4.5929e-05  1.9892e-05  0:04:19 1389
   612  1.4170e-04  3.7189e-04  2.8368e-04  8.8773e-03  1.3756e-04  4.5770e-05  1.9957e-05  0:03:27 1388
   613  1.4126e-04  3.6871e-04  2.8188e-04  8.8393e-03  1.3714e-04  4.5608e-05  2.0028e-05  0:02:45 1387
   614  1.4073e-04  3.6575e-04  2.8022e-04  8.7968e-03  1.3665e-04  4.5442e-05  2.0112e-05  0:06:49 1386
   615  1.4013e-04  3.6300e-04  2.7869e-04  8.7512e-03  1.3607e-04  4.5277e-05  2.0198e-05  0:05:27 1385
   616  1.3943e-04  3.6046e-04  2.7726e-04  8.7101e-03  1.3541e-04  4.5126e-05  2.0291e-05  0:04:22 1384

  iter  continuity  x-velocity  y-velocity  z-velocity      energy           k       omega     time/iter
   617  1.3864e-04  3.5813e-04  2.7594e-04  8.6678e-03  1.3465e-04  4.4974e-05  2.0383e-05  0:03:29 1383
   618  1.3776e-04  3.5600e-04  2.7468e-04  8.6225e-03  1.3380e-04  4.4832e-05  2.0471e-05  0:02:47 1382
   619  1.3679e-04  3.5406e-04  2.7349e-04  8.5715e-03  1.3285e-04  4.4731e-05  2.0560e-05  0:02:14 1381
   620  1.3572e-04  3.5230e-04  2.7234e-04  8.5193e-03  1.3181e-04  4.4639e-05  2.0650e-05  0:06:23 1380
   621  1.3457e-04  3.5070e-04  2.7122e-04  8.4642e-03  1.3068e-04  4.4543e-05  2.0745e-05  0:05:06 1379
   622  1.3332e-04  3.4926e-04  2.7012e-04  8.4055e-03  1.2946e-04  4.4461e-05  2.0837e-05  0:08:40 1378
   623  1.3199e-04  3.4796e-04  2.6901e-04  8.3432e-03  1.2816e-04  4.4406e-05  2.0938e-05  0:06:56 1377
   624  1.3059e-04  3.4679e-04  2.6789e-04  8.2815e-03  1.2678e-04  4.4358e-05  2.1040e-05  0:05:32 1376
[...]
  1838  3.4033e-07  8.0159e-07  7.0587e-07  6.6319e-06  3.3043e-07  1.3292e-07  5.7271e-08  0:00:48  162
  1839  3.3854e-07  7.9745e-07  7.0210e-07  6.5962e-06  3.2869e-07  1.3229e-07  5.6998e-08  0:00:38  161
  1840  3.3676e-07  7.9334e-07  6.9835e-07  6.5608e-06  3.2697e-07  1.3167e-07  5.6726e-08  0:00:30  160
  1841  3.3500e-07  7.8925e-07  6.9462e-07  6.5257e-06  3.2525e-07  1.3106e-07  5.6456e-08  0:00:24  159
  1842  3.3324e-07  7.8518e-07  6.9091e-07  6.4907e-06  3.2355e-07  1.3045e-07  5.6188e-08  0:00:19  158
  1843  3.3149e-07  7.8113e-07  6.8722e-07  6.4561e-06  3.2185e-07  1.2984e-07  5.5921e-08  0:00:15  157
  1844  3.2976e-07  7.7711e-07  6.8355e-07  6.4216e-06  3.2017e-07  1.2923e-07  5.5655e-08  0:00:43  156
  1845  3.2803e-07  7.7310e-07  6.7991e-07  6.3874e-06  3.1849e-07  1.2863e-07  5.5392e-08  0:00:34  155
  1846  3.2631e-07  7.6912e-07  6.7628e-07  6.3535e-06  3.1683e-07  1.2804e-07  5.5129e-08  0:00:27  154
  1847  3.2461e-07  7.6516e-07  6.7268e-07  6.3198e-06  3.1517e-07  1.2745e-07  5.4869e-08  0:00:22  153
  1848  3.2291e-07  7.6122e-07  6.6910e-07  6.2863e-06  3.1353e-07  1.2686e-07  5.4609e-08  0:00:17  152

  iter  continuity  x-velocity  y-velocity  z-velocity      energy           k       omega     time/iter
  1849  3.2123e-07  7.5730e-07  6.6554e-07  6.2530e-06  3.1190e-07  1.2627e-07  5.4352e-08  0:00:44  151
  1850  3.1956e-07  7.5340e-07  6.6200e-07  6.2200e-06  3.1027e-07  1.2569e-07  5.4095e-08  0:00:35  150
  1851  3.1789e-07  7.4952e-07  6.5848e-07  6.1872e-06  3.0866e-07  1.2512e-07  5.3841e-08  0:00:28  149
  1852  3.1624e-07  7.4566e-07  6.5498e-07  6.1546e-06  3.0705e-07  1.2454e-07  5.3587e-08  0:00:22  148
  1853  3.1459e-07  7.4182e-07  6.5150e-07  6.1222e-06  3.0546e-07  1.2397e-07  5.3335e-08  0:00:18  147
  1854  3.1296e-07  7.3801e-07  6.4804e-07  6.0901e-06  3.0387e-07  1.2341e-07  5.3085e-08  0:00:14  146
  1855  3.1134e-07  7.3421e-07  6.4461e-07  6.0581e-06  3.0230e-07  1.2285e-07  5.2836e-08  0:00:40  145
  1856  3.0972e-07  7.3044e-07  6.4119e-07  6.0264e-06  3.0073e-07  1.2229e-07  5.2588e-08  0:00:32  144
  1857  3.0812e-07  7.2668e-07  6.3779e-07  5.9949e-06  2.9918e-07  1.2173e-07  5.2341e-08  0:00:25  143
  1858  3.0652e-07  7.2295e-07  6.3442e-07  5.9636e-06  2.9763e-07  1.2118e-07  5.2096e-08  0:00:20  142
  1859  3.0494e-07  7.1923e-07  6.3106e-07  5.9325e-06  2.9609e-07  1.2063e-07  5.1853e-08  0:00:16  141

  iter  continuity  x-velocity  y-velocity  z-velocity      energy           k       omega     time/iter
  1860  3.0336e-07  7.1554e-07  6.2773e-07  5.9016e-06  2.9456e-07  1.2009e-07  5.1610e-08  0:00:41  140
  1861  3.0180e-07  7.1186e-07  6.2441e-07  5.8709e-06  2.9304e-07  1.1954e-07  5.1369e-08  0:00:32  139
  1862  3.0024e-07  7.0820e-07  6.2111e-07  5.8404e-06  2.9153e-07  1.1900e-07  5.1129e-08  0:00:26  138
  1863  2.9869e-07  7.0457e-07  6.1784e-07  5.8101e-06  2.9003e-07  1.1847e-07  5.0891e-08  0:00:20  137
  1864  2.9716e-07  7.0095e-07  6.1458e-07  5.7799e-06  2.8854e-07  1.1794e-07  5.0654e-08  0:00:43  136
  1865  2.9563e-07  6.9736e-07  6.1134e-07  5.7500e-06  2.8706e-07  1.1741e-07  5.0418e-08  0:00:34  135
  1866  2.9411e-07  6.9378e-07  6.0812e-07  5.7203e-06  2.8559e-07  1.1688e-07  5.0183e-08  0:00:27  134
  1867  2.9260e-07  6.9022e-07  6.0493e-07  5.6908e-06  2.8412e-07  1.1636e-07  4.9949e-08  0:00:22  133
  1868  2.9110e-07  6.8668e-07  6.0175e-07  5.6614e-06  2.8267e-07  1.1584e-07  4.9717e-08  0:00:17  132
  1869  2.8961e-07  6.8316e-07  5.9859e-07  5.6322e-06  2.8122e-07  1.1532e-07  4.9486e-08  0:00:14  131
  1870  2.8812e-07  6.7966e-07  5.9545e-07  5.6033e-06  2.7978e-07  1.1481e-07  4.9256e-08  0:00:37  130

  iter  continuity  x-velocity  y-velocity  z-velocity      energy           k       omega     time/iter
  1871  2.8665e-07  6.7618e-07  5.9232e-07  5.5745e-06  2.7835e-07  1.1429e-07  4.9027e-08  0:00:29  129
  1872  2.8518e-07  6.7271e-07  5.8922e-07  5.5459e-06  2.7693e-07  1.1379e-07  4.8800e-08  0:00:23  128
  1873  2.8373e-07  6.6927e-07  5.8614e-07  5.5174e-06  2.7552e-07  1.1328e-07  4.8573e-08  0:00:18  127
  1874  2.8228e-07  6.6584e-07  5.8307e-07  5.4892e-06  2.7411e-07  1.1278e-07  4.8348e-08  0:00:15  126
  1875  2.8084e-07  6.6244e-07  5.8002e-07  5.4611e-06  2.7271e-07  1.1228e-07  4.8124e-08  0:00:12  125
  1876  2.7941e-07  6.5905e-07  5.7699e-07  5.4332e-06  2.7133e-07  1.1178e-07  4.7901e-08  0:00:34  124
  1877  2.7799e-07  6.5568e-07  5.7398e-07  5.4055e-06  2.6995e-07  1.1128e-07  4.7679e-08  0:00:27  123
  1878  2.7657e-07  6.5233e-07  5.7099e-07  5.3780e-06  2.6857e-07  1.1079e-07  4.7458e-08  0:00:21  122
  1879  2.7517e-07  6.4899e-07  5.6802e-07  5.3507e-06  2.6721e-07  1.1030e-07  4.7238e-08  0:00:17  121
  1880  2.7377e-07  6.4568e-07  5.6506e-07  5.3235e-06  2.6586e-07  1.0981e-07  4.7019e-08  0:00:13  120
  1881  2.7238e-07  6.4238e-07  5.6212e-07  5.2965e-06  2.6451e-07  1.0933e-07  4.6802e-08  0:00:34  119

  iter  continuity  x-velocity  y-velocity  z-velocity      energy           k       omega     time/iter
  1882  2.7100e-07  6.3910e-07  5.5920e-07  5.2697e-06  2.6317e-07  1.0884e-07  4.6585e-08  0:00:27  118
  1883  2.6963e-07  6.3584e-07  5.5630e-07  5.2430e-06  2.6184e-07  1.0836e-07  4.6369e-08  0:00:22  117
  1884  2.6826e-07  6.3260e-07  5.5341e-07  5.2166e-06  2.6051e-07  1.0788e-07  4.6155e-08  0:00:17  116
  1885  2.6690e-07  6.2937e-07  5.5055e-07  5.1903e-06  2.5920e-07  1.0741e-07  4.5941e-08  0:00:14  115
  1886  2.6555e-07  6.2616e-07  5.4770e-07  5.1641e-06  2.5789e-07  1.0693e-07  4.5729e-08  0:00:34  114
  1887  2.6421e-07  6.2297e-07  5.4486e-07  5.1382e-06  2.5659e-07  1.0646e-07  4.5517e-08  0:00:27  113
  1888  2.6288e-07  6.1980e-07  5.4205e-07  5.1124e-06  2.5529e-07  1.0599e-07  4.5307e-08  0:00:21  112
  1889  2.6156e-07  6.1664e-07  5.3925e-07  5.0868e-06  2.5401e-07  1.0553e-07  4.5097e-08  0:00:17  111
  1890  2.6024e-07  6.1350e-07  5.3646e-07  5.0613e-06  2.5273e-07  1.0506e-07  4.4888e-08  0:00:13  110
  1891  2.5893e-07  6.1038e-07  5.3370e-07  5.0360e-06  2.5146e-07  1.0460e-07  4.4681e-08  0:00:32  109
  1892  2.5763e-07  6.0727e-07  5.3095e-07  5.0109e-06  2.5020e-07  1.0414e-07  4.4474e-08  0:00:26  108

  iter  continuity  x-velocity  y-velocity  z-velocity      energy           k       omega     time/iter
  1893  2.5633e-07  6.0418e-07  5.2822e-07  4.9859e-06  2.4894e-07  1.0368e-07  4.4268e-08  0:00:20  107
  1894  2.5504e-07  6.0111e-07  5.2550e-07  4.9611e-06  2.4769e-07  1.0323e-07  4.4064e-08  0:00:16  106
  1895  2.5377e-07  5.9805e-07  5.2280e-07  4.9365e-06  2.4645e-07  1.0277e-07  4.3860e-08  0:00:13  105
  1896  2.5249e-07  5.9502e-07  5.2012e-07  4.9120e-06  2.4522e-07  1.0232e-07  4.3657e-08  0:00:10  104
  1897  2.5123e-07  5.9199e-07  5.1745e-07  4.8876e-06  2.4399e-07  1.0187e-07  4.3456e-08  0:00:29  103
  1898  2.4997e-07  5.8899e-07  5.1480e-07  4.8635e-06  2.4277e-07  1.0142e-07  4.3255e-08  0:00:23  102
  1899  2.4872e-07  5.8600e-07  5.1216e-07  4.8395e-06  2.4156e-07  1.0097e-07  4.3055e-08  0:00:18  101
  1900  2.4748e-07  5.8302e-07  5.0954e-07  4.8156e-06  2.4035e-07  1.0053e-07  4.2856e-08  0:00:14  100
  1901  2.4625e-07  5.8006e-07  5.0694e-07  4.7919e-06  2.3915e-07  1.0008e-07  4.2657e-08  0:00:11   99
  1902  2.4502e-07  5.7712e-07  5.0435e-07  4.7684e-06  2.3796e-07  9.9639e-08  4.2459e-08  0:00:09   98
  1903  2.4380e-07  5.7420e-07  5.0178e-07  4.7450e-06  2.3678e-07  9.9199e-08  4.2263e-08  0:00:26   97

  iter  continuity  x-velocity  y-velocity  z-velocity      energy           k       omega     time/iter
  1904  2.4258e-07  5.7128e-07  4.9922e-07  4.7217e-06  2.3560e-07  9.8761e-08  4.2067e-08  0:00:21   96
  1905  2.4138e-07  5.6839e-07  4.9668e-07  4.6986e-06  2.3443e-07  9.8325e-08  4.1872e-08  0:00:17   95
  1906  2.4018e-07  5.6551e-07  4.9415e-07  4.6757e-06  2.3327e-07  9.7890e-08  4.1677e-08  0:00:13   94
  1907  2.3899e-07  5.6265e-07  4.9164e-07  4.6529e-06  2.3211e-07  9.7457e-08  4.1484e-08  0:00:10   93
  1908  2.3780e-07  5.5980e-07  4.8914e-07  4.6302e-06  2.3096e-07  9.7026e-08  4.1291e-08  0:00:27   92
  1909  2.3662e-07  5.5696e-07  4.8666e-07  4.6077e-06  2.2982e-07  9.6597e-08  4.1099e-08  0:00:21   91
  1910  2.3545e-07  5.5415e-07  4.8420e-07  4.5853e-06  2.2868e-07  9.6170e-08  4.0908e-08  0:00:17   90
  1911  2.3428e-07  5.5134e-07  4.8174e-07  4.5630e-06  2.2755e-07  9.5745e-08  4.0718e-08  0:00:13   89
  1912  2.3313e-07  5.4855e-07  4.7931e-07  4.5409e-06  2.2642e-07  9.5321e-08  4.0528e-08  0:00:10   88
  1913  2.3197e-07  5.4578e-07  4.7688e-07  4.5189e-06  2.2531e-07  9.4899e-08  4.0340e-08  0:00:08   87
  1914  2.3083e-07  5.4302e-07  4.7447e-07  4.4971e-06  2.2420e-07  9.4478e-08  4.0152e-08  0:00:24   86

  iter  continuity  x-velocity  y-velocity  z-velocity      energy           k       omega     time/iter
  1915  2.2969e-07  5.4028e-07  4.7208e-07  4.4754e-06  2.2309e-07  9.4060e-08  3.9965e-08  0:00:19   85
  1916  2.2856e-07  5.3755e-07  4.6970e-07  4.4538e-06  2.2199e-07  9.3642e-08  3.9779e-08  0:00:15   84
  1917  2.2743e-07  5.3484e-07  4.6733e-07  4.4323e-06  2.2090e-07  9.3227e-08  3.9593e-08  0:00:12   83
  1918  2.2631e-07  5.3214e-07  4.6498e-07  4.4110e-06  2.1982e-07  9.2813e-08  3.9408e-08  0:00:09   82
  1919  2.2520e-07  5.2945e-07  4.6264e-07  4.3898e-06  2.1874e-07  9.2400e-08  3.9224e-08  0:00:24   81
  1920  2.2410e-07  5.2678e-07  4.6032e-07  4.3687e-06  2.1766e-07  9.1989e-08  3.9041e-08  0:00:19   80
  1921  2.2300e-07  5.2412e-07  4.5801e-07  4.3477e-06  2.1659e-07  9.1580e-08  3.8859e-08  0:00:15   79
  1922  2.2190e-07  5.2148e-07  4.5571e-07  4.3269e-06  2.1553e-07  9.1172e-08  3.8677e-08  0:00:12   78
  1923  2.2081e-07  5.1885e-07  4.5343e-07  4.3062e-06  2.1448e-07  9.0765e-08  3.8496e-08  0:00:09   77
  1924  2.1973e-07  5.1624e-07  4.5116e-07  4.2856e-06  2.1343e-07  9.0360e-08  3.8316e-08  0:00:07   76
  1925  2.1866e-07  5.1364e-07  4.4890e-07  4.2651e-06  2.1238e-07  8.9956e-08  3.8137e-08  0:00:21   75

  iter  continuity  x-velocity  y-velocity  z-velocity      energy           k       omega     time/iter
  1926  2.1759e-07  5.1105e-07  4.4666e-07  4.2447e-06  2.1135e-07  8.9554e-08  3.7958e-08  0:00:16   74
  1927  2.1652e-07  5.0848e-07  4.4443e-07  4.2244e-06  2.1031e-07  8.9153e-08  3.7780e-08  0:00:13   73
  1928  2.1547e-07  5.0592e-07  4.4222e-07  4.2043e-06  2.0929e-07  8.8754e-08  3.7603e-08  0:00:10   72
  1929  2.1442e-07  5.0338e-07  4.4001e-07  4.1843e-06  2.0827e-07  8.8356e-08  3.7427e-08  0:00:08   71
  1930  2.1337e-07  5.0085e-07  4.3782e-07  4.1644e-06  2.0725e-07  8.7960e-08  3.7251e-08  0:00:06   70
  1931  2.1233e-07  4.9833e-07  4.3565e-07  4.1445e-06  2.0624e-07  8.7564e-08  3.7076e-08  0:00:19   69
  1932  2.1129e-07  4.9583e-07  4.3348e-07  4.1248e-06  2.0524e-07  8.7171e-08  3.6902e-08  0:00:15   68
  1933  2.1027e-07  4.9334e-07  4.3133e-07  4.1052e-06  2.0424e-07  8.6778e-08  3.6728e-08  0:00:12   67
  1934  2.0924e-07  4.9086e-07  4.2919e-07  4.0858e-06  2.0325e-07  8.6388e-08  3.6555e-08  0:00:09   66
  1935  2.0822e-07  4.8840e-07  4.2707e-07  4.0664e-06  2.0226e-07  8.5998e-08  3.6383e-08  0:00:07   65
  1936  2.0721e-07  4.8595e-07  4.2495e-07  4.0471e-06  2.0128e-07  8.5610e-08  3.6211e-08  0:00:06   64

  iter  continuity  x-velocity  y-velocity  z-velocity      energy           k       omega     time/iter
  1937  2.0621e-07  4.8351e-07  4.2285e-07  4.0279e-06  2.0030e-07  8.5224e-08  3.6041e-08  0:00:17   63
  1938  2.0520e-07  4.8109e-07  4.2076e-07  4.0089e-06  1.9933e-07  8.4839e-08  3.5871e-08  0:00:13   62
  1939  2.0421e-07  4.7868e-07  4.1868e-07  3.9899e-06  1.9836e-07  8.4455e-08  3.5701e-08  0:00:11   61
  1940  2.0322e-07  4.7628e-07  4.1662e-07  3.9710e-06  1.9740e-07  8.4072e-08  3.5532e-08  0:00:08   60
  1941  2.0223e-07  4.7389e-07  4.1456e-07  3.9523e-06  1.9644e-07  8.3691e-08  3.5364e-08  0:00:07   59
  1942  2.0125e-07  4.7152e-07  4.1252e-07  3.9336e-06  1.9549e-07  8.3311e-08  3.5197e-08  0:00:05   58
  1943  2.0028e-07  4.6916e-07  4.1049e-07  3.9151e-06  1.9455e-07  8.2932e-08  3.5030e-08  0:00:15   57
  1944  1.9931e-07  4.6681e-07  4.0847e-07  3.8966e-06  1.9360e-07  8.2555e-08  3.4864e-08  0:00:12   56
  1945  1.9834e-07  4.6448e-07  4.0647e-07  3.8783e-06  1.9267e-07  8.2178e-08  3.4699e-08  0:00:10   55
  1946  1.9738e-07  4.6216e-07  4.0447e-07  3.8600e-06  1.9174e-07  8.1803e-08  3.4534e-08  0:00:07   54
  1947  1.9643e-07  4.5985e-07  4.0249e-07  3.8418e-06  1.9081e-07  8.1430e-08  3.4370e-08  0:00:06   53

  iter  continuity  x-velocity  y-velocity  z-velocity      energy           k       omega     time/iter
  1948  1.9548e-07  4.5755e-07  4.0051e-07  3.8238e-06  1.8989e-07  8.1057e-08  3.4206e-08  0:00:05   52
  1949  1.9453e-07  4.5527e-07  3.9855e-07  3.8058e-06  1.8897e-07  8.0686e-08  3.4043e-08  0:00:14   51
  1950  1.9359e-07  4.5299e-07  3.9660e-07  3.7879e-06  1.8806e-07  8.0316e-08  3.3881e-08  0:00:11   50
  1951  1.9266e-07  4.5073e-07  3.9466e-07  3.7701e-06  1.8715e-07  7.9948e-08  3.3719e-08  0:00:09   49
  1952  1.9173e-07  4.4848e-07  3.9273e-07  3.7524e-06  1.8625e-07  7.9580e-08  3.3558e-08  0:00:07   48
  1953  1.9080e-07  4.4625e-07  3.9081e-07  3.7348e-06  1.8535e-07  7.9214e-08  3.3398e-08  0:00:05   47
  1954  1.8988e-07  4.4402e-07  3.8891e-07  3.7173e-06  1.8445e-07  7.8849e-08  3.3238e-08  0:00:04   46
  1955  1.8897e-07  4.4181e-07  3.8701e-07  3.6999e-06  1.8356e-07  7.8485e-08  3.3079e-08  0:00:12   45
  1956  1.8806e-07  4.3961e-07  3.8512e-07  3.6825e-06  1.8268e-07  7.8122e-08  3.2921e-08  0:00:10   44
  1957  1.8715e-07  4.3742e-07  3.8325e-07  3.6653e-06  1.8180e-07  7.7761e-08  3.2763e-08  0:00:07   43
  1958  1.8625e-07  4.3524e-07  3.8138e-07  3.6482e-06  1.8092e-07  7.7401e-08  3.2605e-08  0:00:06   42

  iter  continuity  x-velocity  y-velocity  z-velocity      energy           k       omega     time/iter
  1959  1.8535e-07  4.3307e-07  3.7952e-07  3.6311e-06  1.8005e-07  7.7041e-08  3.2449e-08  0:00:05   41
  1960  1.8446e-07  4.3092e-07  3.7768e-07  3.6141e-06  1.7918e-07  7.6683e-08  3.2293e-08  0:00:12   40
  1961  1.8357e-07  4.2877e-07  3.7584e-07  3.5972e-06  1.7832e-07  7.6326e-08  3.2137e-08  0:00:09   39
  1962  1.8268e-07  4.2664e-07  3.7402e-07  3.5804e-06  1.7746e-07  7.5971e-08  3.1982e-08  0:00:07   38
  1963  1.8180e-07  4.2452e-07  3.7220e-07  3.5637e-06  1.7661e-07  7.5616e-08  3.1828e-08  0:00:05   37
  1964  1.8093e-07  4.2241e-07  3.7039e-07  3.5470e-06  1.7576e-07  7.5263e-08  3.1674e-08  0:00:04   36
  1965  1.8006e-07  4.2031e-07  3.6860e-07  3.5305e-06  1.7491e-07  7.4910e-08  3.1521e-08  0:00:03   35
  1966  1.7919e-07  4.1822e-07  3.6681e-07  3.5140e-06  1.7407e-07  7.4559e-08  3.1369e-08  0:00:09   34
  1967  1.7833e-07  4.1614e-07  3.6503e-07  3.4976e-06  1.7323e-07  7.4209e-08  3.1217e-08  0:00:07   33
  1968  1.7747e-07  4.1407e-07  3.6327e-07  3.4813e-06  1.7240e-07  7.3860e-08  3.1066e-08  0:00:06   32
  1969  1.7662e-07  4.1202e-07  3.6151e-07  3.4650e-06  1.7157e-07  7.3512e-08  3.0915e-08  0:00:04   31

  iter  continuity  x-velocity  y-velocity  z-velocity      energy           k       omega     time/iter
  1970  1.7577e-07  4.0997e-07  3.5976e-07  3.4489e-06  1.7075e-07  7.3165e-08  3.0765e-08  0:00:03   30
  1971  1.7492e-07  4.0794e-07  3.5802e-07  3.4328e-06  1.6992e-07  7.2820e-08  3.0615e-08  0:00:03   29
  1972  1.7408e-07  4.0591e-07  3.5629e-07  3.4168e-06  1.6911e-07  7.2475e-08  3.0466e-08  0:00:08   28
  1973  1.7324e-07  4.0390e-07  3.5456e-07  3.4008e-06  1.6829e-07  7.2132e-08  3.0318e-08  0:00:06   27
  1974  1.7241e-07  4.0189e-07  3.5285e-07  3.3850e-06  1.6748e-07  7.1789e-08  3.0170e-08  0:00:05   26
  1975  1.7158e-07  3.9990e-07  3.5115e-07  3.3692e-06  1.6668e-07  7.1448e-08  3.0023e-08  0:00:03   25
  1976  1.7076e-07  3.9792e-07  3.4945e-07  3.3534e-06  1.6588e-07  7.1108e-08  2.9876e-08  0:00:07   24
  1977  1.6993e-07  3.9594e-07  3.4777e-07  3.3378e-06  1.6508e-07  7.0769e-08  2.9730e-08  0:00:06   23
  1978  1.6912e-07  3.9398e-07  3.4609e-07  3.3222e-06  1.6429e-07  7.0431e-08  2.9585e-08  0:00:04   22
  1979  1.6830e-07  3.9203e-07  3.4442e-07  3.3067e-06  1.6350e-07  7.0094e-08  2.9440e-08  0:00:03   21
  1980  1.6750e-07  3.9008e-07  3.4276e-07  3.2913e-06  1.6271e-07  6.9759e-08  2.9295e-08  0:00:03   20

  iter  continuity  x-velocity  y-velocity  z-velocity      energy           k       omega     time/iter
  1981  1.6669e-07  3.8815e-07  3.4111e-07  3.2759e-06  1.6193e-07  6.9424e-08  2.9152e-08  0:00:02   19
  1982  1.6589e-07  3.8623e-07  3.3946e-07  3.2606e-06  1.6115e-07  6.9091e-08  2.9008e-08  0:00:05   18
  1983  1.6509e-07  3.8431e-07  3.3783e-07  3.2454e-06  1.6038e-07  6.8758e-08  2.8866e-08  0:00:04   17
  1984  1.6430e-07  3.8241e-07  3.3620e-07  3.2303e-06  1.5961e-07  6.8427e-08  2.8724e-08  0:00:03   16
  1985  1.6351e-07  3.8051e-07  3.3458e-07  3.2152e-06  1.5884e-07  6.8097e-08  2.8582e-08  0:00:02   15
  1986  1.6272e-07  3.7863e-07  3.3297e-07  3.2002e-06  1.5808e-07  6.7767e-08  2.8441e-08  0:00:02   14
  1987  1.6194e-07  3.7675e-07  3.3137e-07  3.1853e-06  1.5732e-07  6.7439e-08  2.8301e-08  0:00:04   13
  1988  1.6116e-07  3.7489e-07  3.2978e-07  3.1704e-06  1.5656e-07  6.7112e-08  2.8161e-08  0:00:03   12
  1989  1.6039e-07  3.7303e-07  3.2819e-07  3.1556e-06  1.5581e-07  6.6786e-08  2.8021e-08  0:00:02   11
  1990  1.5962e-07  3.7118e-07  3.2661e-07  3.1409e-06  1.5506e-07  6.6462e-08  2.7883e-08  0:00:01   10
  1991  1.5885e-07  3.6935e-07  3.2504e-07  3.1262e-06  1.5431e-07  6.6138e-08  2.7744e-08  0:00:01    9

  iter  continuity  x-velocity  y-velocity  z-velocity      energy           k       omega     time/iter
  1992  1.5808e-07  3.6752e-07  3.2348e-07  3.1116e-06  1.5357e-07  6.5815e-08  2.7607e-08  0:00:01    8
  1993  1.5732e-07  3.6570e-07  3.2193e-07  3.0971e-06  1.5283e-07  6.5494e-08  2.7470e-08  0:00:01    7
  1994  1.5657e-07  3.6389e-07  3.2038e-07  3.0826e-06  1.5210e-07  6.5173e-08  2.7333e-08  0:00:02    6
  1995  1.5581e-07  3.6209e-07  3.1884e-07  3.0682e-06  1.5136e-07  6.4854e-08  2.7197e-08  0:00:01    5
  1996  1.5506e-07  3.6029e-07  3.1731e-07  3.0539e-06  1.5063e-07  6.4536e-08  2.7061e-08  0:00:01    4
  1997  1.5432e-07  3.5851e-07  3.1578e-07  3.0396e-06  1.4991e-07  6.4218e-08  2.6926e-08  0:00:00    3
  1998  1.5357e-07  3.5674e-07  3.1427e-07  3.0254e-06  1.4919e-07  6.3902e-08  2.6792e-08  0:00:00    2
  1999  1.5283e-07  3.5497e-07  3.1276e-07  3.0113e-06  1.4847e-07  6.3587e-08  2.6658e-08  0:00:00    1
  2000  1.5210e-07  3.5322e-07  3.1126e-07  2.9972e-06  1.4775e-07  6.3273e-08  2.6525e-08  0:00:00    0

> 
adjoint/                parallel/               server/
define/                 parametric-study/       solve/
display/                plot/                   surface/
exit                    preferences/            turbo-workflow/
file/                   print-license-usage     views/
mesh/                   report/

> /file/write-case-data project1
Fast-loading "C:\PROGRA~1\ANSYSI~1\v231\fluent\fluent23.1.0\\addons\afd\lib\hdfio.bin"
Done.

Writing to Engs-30669:"C:\Users\kebl7595\Desktop\CFD\Runs\Viscous\12 degrees\project1.cas.h5" in NODE0 mode and compression level 1 ...
       12996 cells,     1 zone  ...
       43722 faces,     8 zones ...
       17864 nodes,     1 zone  ...
  Done.
Done.

Writing to Engs-30669:"C:\Users\kebl7595\Desktop\CFD\Runs\Viscous\12 degrees\project1.dat.h5" in NODE0 mode and compression level 1 ...
  Writing results.
Done.

> /file/export/ascii "./surface.dat" wing te () no pressure mach-number quit no

Writing "./surface.dat"...

Writing information to ascii file ...
Done.


> /report/forces/wall-forces y -0.20791 0.97815 0 y "Lift"

> /report/forces/wall-forces y 0.97815 0.20791 0 y "Drag"

> /exit

Posting ANSYS Product Improvement Program performance data 
Done.
Auto-Transcript Stop Time:  10:49:32, 21 May 2024 GMT Daylight Time 
Total Transcript Time: 6 Minute 1 Second.
