Auto-Transcript Start Time:  10:07:58, 22 May 2024 GMT Daylight Time 
Current Directory: "C:\Users\kebl7595\Desktop\CFD\Runs\Flap\0 degrees"

              Welcome to ANSYS Fluent 2023 R1

              Copyright 1987-2023 ANSYS, Inc. All Rights Reserved.
              Unauthorized use, distribution or duplication is prohibited.
              This product is subject to U.S. laws governing export and re-export.
              For full Legal Notice, see documentation.

Build Time: Nov 28 2022 09:52:02 EST  Build Id: 10208  
 
Connected License Server List:	1055@ansyslic.eng.ox.ac.uk

*********************************************
Info: Your license enables 4-way parallel execution.
For faster simulations, please start the application with the appropriate parallel options.
*********************************************


     --------------------------------------------------------------
     This is an academic version of ANSYS FLUENT. Usage of this product
     license is limited to the terms and conditions specified in your ANSYS
     license form, additional terms section.
     --------------------------------------------------------------
Host spawning Node 0 on machine "Engs-30669" (win64).

------------------------------------------------------------------------------------
ID    Hostname    Core  O.S.         PID    Vendor                                 
------------------------------------------------------------------------------------
n0    Engs-30669  1/32  Windows-x64  35056  13th Gen Intel(R) Core(TM) i9-13900    
host  Engs-30669        Windows-x64  41788  13th Gen Intel(R) Core(TM) i9-13900    

MPI Option Selected: intel
------------------------------------------------------------------------------------

Cleanup script file is C:\\Users\\kebl7595\\Desktop\\CFD\\Runs\\Flap\\0 degrees\\cleanup-fluent-Engs-30669-41788.bat

Posting ANSYS Product Improvement Program startup data
Done.

Reading journal file C:/Users/kebl7595/Desktop/CFD/Runs/Flap/0 degrees/project1.jou...

> /file/set-batch-options no no no 

> 
define/                 parametric-study/       solve/
display/                plot/                   surface/
exit                    preferences/            switch-to-meshing-mode
file/                   print-license-usage     turbo-workflow/
mesh/                   report/                 views/
parallel/               server/

> /file/import/cgns/mesh  "./project1.cgns"
Engs-30669 has other FLUENT parallel processes running.                       Process affinity not being set.

Importing "./project1.cgns"

Opening library "C:\\PROGRA~1\\ANSYSI~1\\v231\\fluent\\fluent23.1.0\\vki\\win64\\devtools4.4.6.dll"... done.

Read    33000 nodes
   24072 hexahedral cells, zone  1
   17404 quadrilateral wall faces, zone  2.
   63040 quadrilateral interior faces, zone  3.
     474 quadrilateral interface faces, zone  4.

Building...
     mesh
     materials,
     interface,
     domains,
     zones,
	interface-default_subface
	default_interior-1
	default_subface
	default
     parallel,
The automatic selection for flux type has changed to Rhie-Chow: momentum based.

Done.


> 
adjoint/                parallel/               server/
define/                 parametric-study/       solve/
display/                plot/                   surface/
exit                    preferences/            turbo-workflow/
file/                   print-license-usage     views/
mesh/                   report/

> /define/models/solver/density-based-implicit yes

> 
adjoint/                parallel/               server/
define/                 parametric-study/       solve/
display/                plot/                   surface/
exit                    preferences/            turbo-workflow/
file/                   print-license-usage     views/
mesh/                   report/

> /define/models/energy? yes yes invalid command [yes]
yes

> /define/models/viscous/kw-standard? yes

> 
adjoint/                parallel/               server/
define/                 parametric-study/       solve/
display/                plot/                   surface/
exit                    preferences/            turbo-workflow/
file/                   print-license-usage     views/
mesh/                   report/

> /define/materials/change-create air air air is a fluid
yes 
Density
ideal-gas no data required.

no no no no no no

> 
adjoint/                parallel/               server/
define/                 parametric-study/       solve/
display/                plot/                   surface/
exit                    preferences/            turbo-workflow/
file/                   print-license-usage     views/
mesh/                   report/

> /mesh/modify-zones/sep-face-zone-angle 2 90 yes

 8024 faces in contiguous region 0
 441 faces in contiguous region 1
 618 faces in contiguous region 2
 8024 faces in contiguous region 3
 297 faces in contiguous region 4
 Separates zone 2 into 5 zone(s).
Updating new zone information...
   created new zone default_subface:009 from default_subface
   created new zone default_subface:008 from default_subface
   created new zone default_subface:007 from default_subface
   created new zone default_subface:006 from default_subface
done.

> 
adjoint/                parallel/               server/
define/                 parametric-study/       solve/
display/                plot/                   surface/
exit                    preferences/            turbo-workflow/
file/                   print-license-usage     views/
mesh/                   report/

> /define/boundary-conditions/zone-name  6 wing

> /define/boundary-conditions/zone-name  2 sym1

> /define/boundary-conditions/zone-name  8 sym2

> 
adjoint/                parallel/               server/
define/                 parametric-study/       solve/
display/                plot/                   surface/
exit                    preferences/            turbo-workflow/
file/                   print-license-usage     views/
mesh/                   report/

> /define/boundary-conditions/zone-name  7 far1

> /define/boundary-conditions/zone-name 9 far2

> 
adjoint/                parallel/               server/
define/                 parametric-study/       solve/
display/                plot/                   surface/
exit                    preferences/            turbo-workflow/
file/                   print-license-usage     views/
mesh/                   report/

> /define/boundary-conditions/zone-type  7 pressure-far-field

> /define/boundary-conditions/zone-type 9 pressure-far-field

> /define/boundary-conditions/zone-type  2 symmetry

> /define/boundary-conditions/zone-type  8 symmetry

> 
adjoint/                parallel/               server/
define/                 parametric-study/       solve/
display/                plot/                   surface/
exit                    preferences/            turbo-workflow/
file/                   print-license-usage     views/
mesh/                   report/

> /define/boundary-conditions/pressure-far-field (far2 far1)
far1 no 0 no 0.1 no 300 yes no 1 no -0. no 0. no yes 5 0.02

> /define/boundary-conditions/pressure-far-field (far2 far1)
far2 no 0 no 0.1 no 300 yes no 1 no -0. no 0. no yes 5 0.02

> 
adjoint/                parallel/               server/
define/                 parametric-study/       solve/
display/                plot/                   surface/
exit                    preferences/            turbo-workflow/
file/                   print-license-usage     views/
mesh/                   report/

> /solve/initialize/compute-defaults/pressure-far-field (far2 far1)
far1

> /solve/initialize/initialize-flow

> 
adjoint/                parallel/               server/
define/                 parametric-study/       solve/
display/                plot/                   surface/
exit                    preferences/            turbo-workflow/
file/                   print-license-usage     views/
mesh/                   report/

> /solve/monitors/residual/convergence-criteria 1.e-9 1.e-9 1.e-9 1.e-9 1.e-9 1.e-9 1.e-9

> /solve/iterate 2000

  iter  continuity  x-velocity  y-velocity  z-velocity      energy           k       omega     time/iter
     1  1.0000e+00  1.0000e+00  1.0000e+00  1.0000e+00  1.0000e+00  5.3984e-02  5.4667e-02  0:00:00 1999
     2  4.5996e-01  2.6175e-01  2.8603e-01  1.0000e+00  4.6224e-01  4.8251e-02  4.0525e-02  0:33:18 1998
     3  2.0468e-01  1.4427e-01  1.5432e-01  9.1589e-01  2.0491e-01  4.3467e-02  3.5389e-02  0:26:38 1997
     4  1.5100e-01  8.5193e-02  1.0244e-01  8.9796e-01  1.5163e-01  3.9448e-02  3.2410e-02  0:21:17 1996
     5  1.2663e-01  5.8782e-02  7.7653e-02  9.5148e-01  1.2754e-01  3.6111e-02  3.0017e-02  0:17:01 1995
     6  1.0816e-01  4.2370e-02  6.2725e-02  9.5999e-01  1.0896e-01  3.3231e-02  2.7989e-02  0:13:37 1994
     7  9.5970e-02  2.9695e-02  5.2094e-02  1.0171e+00  9.6569e-02  3.0748e-02  2.6141e-02  0:10:53 1993
     8  9.1742e-02  2.0630e-02  4.4868e-02  1.0868e+00  9.2248e-02  2.8615e-02  2.4561e-02  0:08:42 1992
     9  8.9860e-02  1.5107e-02  4.0439e-02  1.1389e+00  9.0323e-02  2.6800e-02  2.3270e-02  0:13:36 1991
    10  8.7747e-02  1.2061e-02  3.7920e-02  1.1007e+00  8.8163e-02  2.5249e-02  2.2087e-02  0:10:52 1990
    11  8.4505e-02  1.0360e-02  3.6381e-02  9.7873e-01  8.4866e-02  2.3927e-02  2.1077e-02  0:08:42 1989

  iter  continuity  x-velocity  y-velocity  z-velocity      energy           k       omega     time/iter
    12  8.1064e-02  9.4928e-03  3.5496e-02  8.7454e-01  8.1375e-02  2.2805e-02  2.0211e-02  0:06:57 1988
    13  7.8321e-02  9.2710e-03  3.5087e-02  8.0941e-01  7.8592e-02  2.1831e-02  1.9331e-02  0:05:33 1987
    14  7.6138e-02  9.6816e-03  3.4861e-02  7.9729e-01  7.6376e-02  2.0965e-02  1.8614e-02  0:04:27 1986
    15  7.4056e-02  1.0559e-02  3.4974e-02  8.5935e-01  7.4268e-02  2.0156e-02  1.7925e-02  0:03:33 1985
    16  7.2213e-02  1.1698e-02  3.4560e-02  8.4926e-01  7.2415e-02  1.9421e-02  1.7343e-02  0:02:50 1984
    17  7.0084e-02  1.2601e-02  3.3960e-02  8.8039e-01  7.0272e-02  1.8716e-02  1.6826e-02  0:02:16 1983
    18  6.9034e-02  1.3548e-02  3.3659e-02  9.2255e-01  6.9219e-02  1.8090e-02  1.6343e-02  0:08:25 1982
    19  6.6843e-02  1.4391e-02  3.3471e-02  9.6150e-01  6.7023e-02  1.7528e-02  1.5919e-02  0:06:44 1981
    20  6.2764e-02  1.4981e-02  3.3233e-02  9.8917e-01  6.2927e-02  1.7011e-02  1.5526e-02  0:05:23 1980
    21  5.6846e-02  1.5170e-02  3.2979e-02  1.0019e+00  5.6978e-02  1.6532e-02  1.5095e-02  0:04:18 1979
    22  4.9848e-02  1.5309e-02  3.2837e-02  9.8321e-01  4.9944e-02  1.6084e-02  1.4623e-02  0:03:27 1978

  iter  continuity  x-velocity  y-velocity  z-velocity      energy           k       omega     time/iter
    23  4.1679e-02  1.4474e-02  3.2487e-02  9.3764e-01  4.1735e-02  1.5706e-02  1.4202e-02  0:02:45 1977
    24  3.4008e-02  1.3431e-02  3.2277e-02  8.6455e-01  3.4033e-02  1.5374e-02  1.3932e-02  0:02:12 1976
    25  2.7932e-02  1.2037e-02  3.2234e-02  7.8773e-01  2.7940e-02  1.5052e-02  1.3608e-02  0:01:46 1975
    26  2.4560e-02  1.0320e-02  3.2191e-02  7.3180e-01  2.4577e-02  1.4703e-02  1.3171e-02  0:07:59 1974
    27  2.4055e-02  8.7972e-03  3.2310e-02  7.0138e-01  2.4095e-02  1.4348e-02  1.2776e-02  0:06:23 1973
    28  2.5244e-02  7.7397e-03  3.2436e-02  6.8776e-01  2.5307e-02  1.4045e-02  1.2448e-02  0:05:06 1972
    29  2.7177e-02  7.1617e-03  3.2592e-02  6.8191e-01  2.7258e-02  1.3760e-02  1.2054e-02  0:04:05 1971
    30  2.9200e-02  6.8298e-03  3.2626e-02  6.7970e-01  2.9291e-02  1.3471e-02  1.1663e-02  0:03:16 1970
    31  3.0820e-02  6.6331e-03  3.2409e-02  6.7206e-01  3.0918e-02  1.3181e-02  1.1293e-02  0:02:37 1969
    32  3.1711e-02  6.3704e-03  3.1789e-02  6.5680e-01  3.1811e-02  1.2929e-02  1.0934e-02  0:02:05 1968
    33  3.1751e-02  6.0826e-03  3.0821e-02  6.3182e-01  3.1849e-02  1.2681e-02  1.0593e-02  0:01:40 1967

  iter  continuity  x-velocity  y-velocity  z-velocity      energy           k       omega     time/iter
    34  3.0822e-02  5.7525e-03  2.9415e-02  5.9831e-01  3.0913e-02  1.2441e-02  1.0288e-02  0:07:53 1966
    35  2.9449e-02  5.2684e-03  2.7804e-02  5.6235e-01  2.9528e-02  1.2221e-02  1.0031e-02  0:06:18 1965
    36  2.7642e-02  4.7901e-03  2.5949e-02  5.2075e-01  2.7705e-02  1.2007e-02  9.8147e-03  0:05:03 1964
    37  2.5620e-02  4.3516e-03  2.3946e-02  4.7650e-01  2.5666e-02  1.1795e-02  9.6129e-03  0:04:02 1963
    38  2.3573e-02  3.9845e-03  2.1883e-02  4.3672e-01  2.3601e-02  1.1612e-02  9.4739e-03  0:03:13 1962
    39  2.1787e-02  3.7083e-03  1.9840e-02  3.9941e-01  2.1800e-02  1.1440e-02  9.3497e-03  0:02:35 1961
    40  2.0145e-02  3.5219e-03  1.7902e-02  3.6562e-01  2.0145e-02  1.1285e-02  9.2778e-03  0:02:04 1960
    41  1.8667e-02  3.4528e-03  1.6135e-02  3.3855e-01  1.8656e-02  1.1162e-02  9.1766e-03  0:01:39 1959
    42  1.7433e-02  3.3925e-03  1.4810e-02  3.1125e-01  1.7416e-02  1.1090e-02  9.1041e-03  0:01:19 1958
    43  1.6531e-02  3.4470e-03  1.3571e-02  2.9325e-01  1.6511e-02  1.1034e-02  9.0264e-03  0:07:35 1957
    44  1.6009e-02  3.4739e-03  1.2745e-02  2.8420e-01  1.5989e-02  1.0991e-02  8.8512e-03  0:06:04 1956

  iter  continuity  x-velocity  y-velocity  z-velocity      energy           k       omega     time/iter
    45  1.5725e-02  3.5035e-03  1.2216e-02  2.8286e-01  1.5708e-02  1.1094e-02  8.8343e-03  0:04:51 1955
    46  1.5564e-02  3.5313e-03  1.1853e-02  2.7855e-01  1.5551e-02  1.1015e-02  8.6456e-03  0:03:52 1954
    47  1.5451e-02  3.4612e-03  1.1716e-02  2.6970e-01  1.5442e-02  1.1020e-02  8.4829e-03  0:03:06 1953
    48  1.5319e-02  3.3592e-03  1.1762e-02  2.6568e-01  1.5314e-02  1.1233e-02  8.4216e-03  0:02:29 1952
    49  1.5173e-02  3.2594e-03  1.1968e-02  2.5614e-01  1.5171e-02  1.1088e-02  8.1917e-03  0:01:59 1951
    50  1.4995e-02  3.1364e-03  1.2288e-02  2.3751e-01  1.4996e-02  1.0865e-02  7.9588e-03  0:01:35 1950
    51  1.4820e-02  3.0051e-03  1.2682e-02  2.2578e-01  1.4823e-02  1.1173e-02  7.9083e-03  0:01:16 1949
    52  1.4676e-02  2.8904e-03  1.3131e-02  2.1804e-01  1.4678e-02  1.1222e-02  7.7655e-03  0:07:30 1948
    53  1.4596e-02  2.7748e-03  1.3617e-02  2.0996e-01  1.4596e-02  1.1020e-02  7.5044e-03  0:06:00 1947
    54  1.4616e-02  2.6798e-03  1.4106e-02  2.0267e-01  1.4612e-02  1.0738e-02  7.3746e-03  0:04:48 1946
    55  1.4734e-02  2.6148e-03  1.4581e-02  1.9769e-01  1.4726e-02  1.0963e-02  7.3467e-03  0:03:50 1945

  iter  continuity  x-velocity  y-velocity  z-velocity      energy           k       omega     time/iter
    56  1.4923e-02  2.5582e-03  1.5037e-02  1.9471e-01  1.4910e-02  1.1092e-02  7.3078e-03  0:03:04 1944
    57  1.5184e-02  2.5307e-03  1.5536e-02  1.9373e-01  1.5167e-02  1.1015e-02  7.2100e-03  0:02:27 1943
    58  1.5521e-02  2.5255e-03  1.6058e-02  1.9344e-01  1.5502e-02  1.0759e-02  7.0940e-03  0:01:58 1942
    59  1.5921e-02  2.5400e-03  1.6556e-02  1.9337e-01  1.5900e-02  1.0782e-02  7.1087e-03  0:01:34 1941
    60  1.6350e-02  2.5665e-03  1.6952e-02  1.9311e-01  1.6327e-02  1.0956e-02  7.1699e-03  0:07:43 1940
    61  1.6738e-02  2.6013e-03  1.7306e-02  1.9474e-01  1.6714e-02  1.1024e-02  7.1403e-03  0:06:10 1939
    62  1.7085e-02  2.6211e-03  1.7605e-02  1.9452e-01  1.7060e-02  1.1128e-02  7.1601e-03  0:04:56 1938
    63  1.7380e-02  2.6322e-03  1.7866e-02  1.9484e-01  1.7354e-02  1.1011e-02  7.1416e-03  0:03:57 1937
    64  1.7611e-02  2.6368e-03  1.8110e-02  1.9589e-01  1.7585e-02  1.0907e-02  7.1430e-03  0:03:09 1936
    65  1.7755e-02  2.6306e-03  1.8312e-02  1.9672e-01  1.7730e-02  1.1004e-02  7.1607e-03  0:02:31 1935
    66  1.7817e-02  2.6029e-03  1.8386e-02  1.9717e-01  1.7793e-02  1.1125e-02  7.1820e-03  0:02:01 1934

  iter  continuity  x-velocity  y-velocity  z-velocity      energy           k       omega     time/iter
    67  1.7766e-02  2.5802e-03  1.8264e-02  1.9789e-01  1.7742e-02  1.1191e-02  7.2005e-03  0:01:37 1933
    68  1.7656e-02  2.5771e-03  1.8033e-02  1.9767e-01  1.7633e-02  1.1200e-02  7.1973e-03  0:01:17 1932
    69  1.7481e-02  2.5672e-03  1.7729e-02  1.9666e-01  1.7458e-02  1.1187e-02  7.2057e-03  0:07:28 1931
    70  1.7219e-02  2.5440e-03  1.7387e-02  1.9654e-01  1.7196e-02  1.1157e-02  7.1799e-03  0:05:58 1930
    71  1.6847e-02  2.5272e-03  1.6958e-02  1.9595e-01  1.6824e-02  1.1105e-02  7.2004e-03  0:04:46 1929
    72  1.6474e-02  2.5258e-03  1.6460e-02  1.9712e-01  1.6451e-02  1.1077e-02  7.1798e-03  0:03:49 1928
    73  1.6083e-02  2.5379e-03  1.5895e-02  2.0089e-01  1.6059e-02  1.1068e-02  7.1731e-03  0:03:03 1927
    74  1.5643e-02  2.5650e-03  1.5301e-02  2.0621e-01  1.5619e-02  1.1058e-02  7.1579e-03  0:02:26 1926
    75  1.5137e-02  2.5882e-03  1.4706e-02  2.1115e-01  1.5112e-02  1.1005e-02  7.1167e-03  0:01:57 1925
    76  1.4597e-02  2.6117e-03  1.4146e-02  2.1687e-01  1.4573e-02  1.1029e-02  7.0948e-03  0:01:34 1924
    77  1.4085e-02  2.6448e-03  1.3631e-02  2.2134e-01  1.4061e-02  1.0952e-02  7.0173e-03  0:07:39 1923

  iter  continuity  x-velocity  y-velocity  z-velocity      energy           k       omega     time/iter
    78  1.3552e-02  2.6882e-03  1.3177e-02  2.2405e-01  1.3528e-02  1.0893e-02  6.9602e-03  0:06:07 1922
    79  1.3061e-02  2.7407e-03  1.2814e-02  2.2586e-01  1.3038e-02  1.0841e-02  6.8904e-03  0:04:54 1921
    80  1.2647e-02  2.7963e-03  1.2509e-02  2.2728e-01  1.2626e-02  1.0760e-02  6.7905e-03  0:03:55 1920
    81  1.2334e-02  2.8565e-03  1.2270e-02  2.2719e-01  1.2316e-02  1.0759e-02  6.7256e-03  0:03:08 1919
    82  1.2079e-02  2.9023e-03  1.2104e-02  2.2570e-01  1.2064e-02  1.0741e-02  6.6481e-03  0:02:30 1918
    83  1.1950e-02  2.9617e-03  1.2008e-02  2.2375e-01  1.1939e-02  1.0735e-02  6.5484e-03  0:02:00 1917
    84  1.1984e-02  3.0213e-03  1.1973e-02  2.2131e-01  1.1977e-02  1.0705e-02  6.4294e-03  0:01:36 1916
    85  1.2191e-02  3.0771e-03  1.1998e-02  2.1741e-01  1.2189e-02  1.0632e-02  6.3235e-03  0:01:17 1915
    86  1.2589e-02  3.1348e-03  1.2059e-02  2.1417e-01  1.2591e-02  1.0619e-02  6.2085e-03  0:07:24 1914
    87  1.3184e-02  3.1838e-03  1.2139e-02  2.1074e-01  1.3190e-02  1.0548e-02  6.1078e-03  0:05:55 1913
    88  1.3962e-02  3.2319e-03  1.2287e-02  2.0804e-01  1.3970e-02  1.0458e-02  6.0335e-03  0:04:44 1912

  iter  continuity  x-velocity  y-velocity  z-velocity      energy           k       omega     time/iter
    89  1.4932e-02  3.2730e-03  1.2473e-02  2.0691e-01  1.4944e-02  1.0377e-02  5.9266e-03  0:03:47 1911
    90  1.6108e-02  3.3126e-03  1.2679e-02  2.0667e-01  1.6122e-02  1.0279e-02  5.8308e-03  0:03:02 1910
    91  1.7853e-02  3.3415e-03  1.2897e-02  2.0782e-01  1.7870e-02  1.0205e-02  5.7802e-03  0:02:25 1909
    92  1.9445e-02  3.3660e-03  1.3112e-02  2.1022e-01  1.9465e-02  1.0132e-02  5.7133e-03  0:01:56 1908
    93  2.0656e-02  3.3896e-03  1.3316e-02  2.1321e-01  2.0676e-02  1.0025e-02  5.6892e-03  0:01:33 1907
    94  2.1682e-02  3.4060e-03  1.3503e-02  2.1673e-01  2.1703e-02  9.9603e-03  5.6732e-03  0:01:14 1906
    95  2.2563e-02  3.4166e-03  1.3665e-02  2.2069e-01  2.2585e-02  9.8536e-03  5.6320e-03  0:07:20 1905
    96  2.3355e-02  3.4279e-03  1.3792e-02  2.2480e-01  2.3378e-02  9.7805e-03  5.6437e-03  0:05:52 1904
    97  2.4050e-02  3.4443e-03  1.3877e-02  2.2841e-01  2.4072e-02  9.6981e-03  5.6052e-03  0:04:42 1903
    98  2.4647e-02  3.4633e-03  1.3920e-02  2.3182e-01  2.4670e-02  9.6018e-03  5.5874e-03  0:03:45 1902
    99  2.5161e-02  3.4942e-03  1.3939e-02  2.3476e-01  2.5184e-02  9.5145e-03  5.5686e-03  0:03:00 1901

  iter  continuity  x-velocity  y-velocity  z-velocity      energy           k       omega     time/iter
   100  2.5513e-02  3.5348e-03  1.3930e-02  2.3639e-01  2.5536e-02  9.4330e-03  5.5352e-03  0:02:24 1900
   101  2.5599e-02  3.5810e-03  1.3888e-02  2.3623e-01  2.5623e-02  9.3459e-03  5.5247e-03  0:01:55 1899
   102  2.5277e-02  3.6522e-03  1.3814e-02  2.3473e-01  2.5300e-02  9.2485e-03  5.5226e-03  0:01:32 1898
   103  2.4411e-02  3.7480e-03  1.3695e-02  2.3188e-01  2.4434e-02  9.1393e-03  5.4964e-03  0:07:33 1897
   104  2.3030e-02  3.8404e-03  1.3524e-02  2.2797e-01  2.3052e-02  9.0555e-03  5.4941e-03  0:06:02 1896
   105  2.1169e-02  3.9238e-03  1.3293e-02  2.2345e-01  2.1190e-02  8.9987e-03  5.4903e-03  0:04:50 1895
   106  1.8946e-02  3.9875e-03  1.2994e-02  2.1850e-01  1.8966e-02  8.9203e-03  5.4853e-03  0:03:52 1894
   107  1.6519e-02  4.0279e-03  1.2618e-02  2.1365e-01  1.6535e-02  8.8947e-03  5.4849e-03  0:03:05 1893
   108  1.4065e-02  4.0200e-03  1.2172e-02  2.0923e-01  1.4077e-02  8.8716e-03  5.4920e-03  0:02:28 1892
   109  1.1769e-02  3.9695e-03  1.1685e-02  2.0492e-01  1.1774e-02  8.8366e-03  5.5061e-03  0:01:58 1891
   110  9.9215e-03  3.8645e-03  1.1202e-02  2.0057e-01  9.9215e-03  8.8108e-03  5.4992e-03  0:01:35 1890

  iter  continuity  x-velocity  y-velocity  z-velocity      energy           k       omega     time/iter
   111  8.6855e-03  3.7096e-03  1.0767e-02  1.9661e-01  8.6799e-03  8.7956e-03  5.4848e-03  0:01:16 1889
   112  8.1299e-03  3.5237e-03  1.0433e-02  1.9318e-01  8.1202e-03  8.7656e-03  5.4740e-03  0:07:18 1888
   113  8.2312e-03  3.3160e-03  1.0201e-02  1.9046e-01  8.2195e-03  8.7440e-03  5.4203e-03  0:05:50 1887
   114  8.8320e-03  3.0964e-03  1.0059e-02  1.8880e-01  8.8200e-03  8.7241e-03  5.3493e-03  0:04:40 1886
   115  9.6906e-03  2.8666e-03  9.9958e-03  1.8783e-01  9.6790e-03  8.7004e-03  5.2865e-03  0:03:44 1885
   116  1.0595e-02  2.6442e-03  9.9740e-03  1.8675e-01  1.0584e-02  8.6883e-03  5.2018e-03  0:02:59 1884
   117  1.1382e-02  2.4418e-03  9.9646e-03  1.8537e-01  1.1371e-02  8.6538e-03  5.1122e-03  0:02:23 1883
   118  1.1990e-02  2.2826e-03  9.9347e-03  1.8400e-01  1.1979e-02  8.6575e-03  5.0262e-03  0:01:54 1882
   119  1.2396e-02  2.1624e-03  9.8764e-03  1.8202e-01  1.2385e-02  8.6562e-03  4.9658e-03  0:01:32 1881
   120  1.2604e-02  2.0807e-03  9.7876e-03  1.8013e-01  1.2592e-02  8.7401e-03  4.9042e-03  0:07:29 1880
   121  1.2675e-02  2.0366e-03  9.6745e-03  1.7842e-01  1.2661e-02  8.8271e-03  4.8459e-03  0:05:59 1879

  iter  continuity  x-velocity  y-velocity  z-velocity      energy           k       omega     time/iter
   122  1.2704e-02  2.0241e-03  9.5543e-03  1.7682e-01  1.2688e-02  8.9355e-03  4.7887e-03  0:04:47 1878
   123  1.2794e-02  2.0345e-03  9.4474e-03  1.7596e-01  1.2776e-02  9.0410e-03  4.7291e-03  0:03:50 1877
   124  1.2945e-02  2.0652e-03  9.3728e-03  1.7590e-01  1.2926e-02  9.1588e-03  4.6601e-03  0:03:04 1876
   125  1.3166e-02  2.1277e-03  9.3425e-03  1.7730e-01  1.3145e-02  9.2721e-03  4.6107e-03  0:02:27 1875
   126  1.3384e-02  2.1891e-03  9.3462e-03  1.7932e-01  1.3361e-02  9.3703e-03  4.5632e-03  0:01:57 1874
   127  1.3721e-02  2.2616e-03  9.3900e-03  1.8123e-01  1.3697e-02  9.4406e-03  4.5132e-03  0:01:34 1873
   128  1.4182e-02  2.3400e-03  9.4688e-03  1.8289e-01  1.4156e-02  9.5225e-03  4.4625e-03  0:07:29 1872
   129  1.4711e-02  2.4170e-03  9.5822e-03  1.8400e-01  1.4684e-02  9.6194e-03  4.4324e-03  0:05:59 1871
   130  1.5243e-02  2.4841e-03  9.7210e-03  1.8468e-01  1.5215e-02  9.7096e-03  4.4122e-03  0:04:47 1870
   131  1.5750e-02  2.5380e-03  9.8722e-03  1.8455e-01  1.5720e-02  9.7747e-03  4.3849e-03  0:03:50 1869
   132  1.6209e-02  2.5722e-03  1.0025e-02  1.8354e-01  1.6178e-02  9.8175e-03  4.3562e-03  0:03:04 1868

  iter  continuity  x-velocity  y-velocity  z-velocity      energy           k       omega     time/iter
   133  1.6591e-02  2.5976e-03  1.0175e-02  1.8162e-01  1.6558e-02  9.8917e-03  4.3304e-03  0:02:27 1867
   134  1.6908e-02  2.6178e-03  1.0336e-02  1.7882e-01  1.6874e-02  9.9403e-03  4.3201e-03  0:01:57 1866
   135  1.7125e-02  2.6300e-03  1.0520e-02  1.7561e-01  1.7090e-02  9.9814e-03  4.3054e-03  0:01:34 1865
   136  1.7235e-02  2.6367e-03  1.0719e-02  1.7182e-01  1.7198e-02  1.0029e-02  4.2846e-03  0:07:28 1864
   137  1.7250e-02  2.6363e-03  1.0933e-02  1.6741e-01  1.7212e-02  1.0028e-02  4.2551e-03  0:05:58 1863
   138  1.7133e-02  2.6296e-03  1.1154e-02  1.6262e-01  1.7095e-02  1.0014e-02  4.2117e-03  0:04:46 1862
   139  1.6928e-02  2.6196e-03  1.1379e-02  1.5782e-01  1.6890e-02  9.9960e-03  4.1565e-03  0:03:49 1861
   140  1.6616e-02  2.6064e-03  1.1605e-02  1.5335e-01  1.6578e-02  9.9830e-03  4.1044e-03  0:03:03 1860
   141  1.6203e-02  2.5893e-03  1.1830e-02  1.4900e-01  1.6165e-02  9.9717e-03  4.0582e-03  0:02:26 1859
   142  1.5818e-02  2.5756e-03  1.2165e-02  1.4503e-01  1.5782e-02  9.9499e-03  4.0062e-03  0:01:57 1858
   143  1.5242e-02  2.5357e-03  1.2325e-02  1.4171e-01  1.5206e-02  9.9166e-03  3.9655e-03  0:07:45 1857

  iter  continuity  x-velocity  y-velocity  z-velocity      energy           k       omega     time/iter
   144  1.4687e-02  2.5079e-03  1.2515e-02  1.3947e-01  1.4652e-02  9.8790e-03  3.9326e-03  0:06:12 1856
   145  1.4066e-02  2.4827e-03  1.2693e-02  1.3834e-01  1.4032e-02  9.8394e-03  3.8965e-03  0:04:57 1855
   146  1.3450e-02  2.4559e-03  1.2861e-02  1.3883e-01  1.3418e-02  9.8129e-03  3.8724e-03  0:03:58 1854
   147  1.2851e-02  2.4320e-03  1.3011e-02  1.4117e-01  1.2821e-02  9.7570e-03  3.8550e-03  0:03:10 1853
   148  1.2257e-02  2.4107e-03  1.3135e-02  1.4571e-01  1.2229e-02  9.6964e-03  3.8377e-03  0:02:32 1852
   149  1.1629e-02  2.3981e-03  1.3234e-02  1.5227e-01  1.1604e-02  9.6541e-03  3.8248e-03  0:02:01 1851
   150  1.1148e-02  2.3912e-03  1.3288e-02  1.6148e-01  1.1125e-02  9.6322e-03  3.8403e-03  0:01:37 1850
   151  1.0818e-02  2.3836e-03  1.3296e-02  1.7284e-01  1.0798e-02  9.6054e-03  3.8530e-03  0:07:27 1849
   152  1.0616e-02  2.3855e-03  1.3271e-02  1.8592e-01  1.0598e-02  9.6118e-03  3.8808e-03  0:05:58 1848
   153  1.0626e-02  2.4034e-03  1.3235e-02  2.0056e-01  1.0609e-02  9.6267e-03  3.9231e-03  0:04:46 1847
   154  1.0772e-02  2.4382e-03  1.3175e-02  2.1693e-01  1.0757e-02  9.6396e-03  3.9599e-03  0:03:49 1846

  iter  continuity  x-velocity  y-velocity  z-velocity      energy           k       omega     time/iter
   155  1.0941e-02  2.4744e-03  1.3090e-02  2.3508e-01  1.0927e-02  9.6650e-03  4.0074e-03  0:03:03 1845
   156  1.1137e-02  2.5180e-03  1.2987e-02  2.5573e-01  1.1123e-02  9.6761e-03  4.0467e-03  0:02:26 1844
   157  1.1342e-02  2.5721e-03  1.2869e-02  2.7734e-01  1.1328e-02  9.6887e-03  4.0619e-03  0:01:57 1843
   158  1.1618e-02  2.6298e-03  1.2744e-02  3.0170e-01  1.1605e-02  9.6982e-03  4.0869e-03  0:07:42 1842
   159  1.1876e-02  2.6843e-03  1.2613e-02  3.2559e-01  1.1862e-02  9.7201e-03  4.1161e-03  0:06:09 1841
   160  1.2081e-02  2.7262e-03  1.2488e-02  3.5040e-01  1.2067e-02  9.7469e-03  4.1346e-03  0:04:55 1840
   161  1.2259e-02  2.7562e-03  1.2356e-02  3.7626e-01  1.2245e-02  9.7812e-03  4.1198e-03  0:03:56 1839
   162  1.2367e-02  2.7832e-03  1.2225e-02  4.0324e-01  1.2352e-02  9.8024e-03  4.1344e-03  0:03:09 1838
   163  1.2393e-02  2.8081e-03  1.2091e-02  4.3088e-01  1.2378e-02  9.8228e-03  4.1532e-03  0:02:31 1837
   164  1.2371e-02  2.8313e-03  1.1966e-02  4.5887e-01  1.2355e-02  9.8501e-03  4.1541e-03  0:02:01 1836
   165  1.2274e-02  2.8536e-03  1.1843e-02  4.8685e-01  1.2257e-02  9.8787e-03  4.1527e-03  0:01:36 1835

  iter  continuity  x-velocity  y-velocity  z-velocity      energy           k       omega     time/iter
   166  1.2135e-02  2.8797e-03  1.1717e-02  5.1427e-01  1.2117e-02  9.9007e-03  4.1586e-03  0:07:24 1834
   167  1.1983e-02  2.9104e-03  1.1623e-02  5.4034e-01  1.1964e-02  9.9278e-03  4.1945e-03  0:05:55 1833
   168  1.1821e-02  2.9455e-03  1.1505e-02  5.6389e-01  1.1801e-02  9.9601e-03  4.2372e-03  0:04:44 1832
   169  1.1721e-02  2.9779e-03  1.1400e-02  5.8548e-01  1.1699e-02  1.0021e-02  4.2800e-03  0:03:47 1831
   170  1.1631e-02  2.9939e-03  1.1213e-02  6.0496e-01  1.1609e-02  1.0077e-02  4.3147e-03  0:03:01 1830
   171  1.1541e-02  3.0012e-03  1.1087e-02  6.2046e-01  1.1518e-02  1.0144e-02  4.3407e-03  0:02:25 1829
   172  1.1511e-02  3.0028e-03  1.0951e-02  6.3275e-01  1.1488e-02  1.0202e-02  4.3544e-03  0:01:56 1828
   173  1.1861e-02  3.2902e-03  1.1164e-02  6.4230e-01  1.1839e-02  1.0267e-02  4.3455e-03  0:01:33 1827
   174  1.1646e-02  2.9830e-03  1.0734e-02  6.4890e-01  1.1623e-02  1.0302e-02  4.3625e-03  0:07:19 1826
   175  1.1696e-02  2.9451e-03  1.0581e-02  6.5059e-01  1.1674e-02  1.0339e-02  4.3796e-03  0:05:51 1825
   176  1.1738e-02  2.9344e-03  1.0482e-02  6.4937e-01  1.1716e-02  1.0386e-02  4.4131e-03  0:04:41 1824

  iter  continuity  x-velocity  y-velocity  z-velocity      energy           k       omega     time/iter
   177  1.1683e-02  2.9259e-03  1.0368e-02  6.4541e-01  1.1662e-02  1.0452e-02  4.4404e-03  0:03:45 1823
   178  1.1633e-02  2.9136e-03  1.0274e-02  6.3729e-01  1.1612e-02  1.0534e-02  4.4559e-03  0:03:00 1822
   179  1.1595e-02  2.8998e-03  1.0184e-02  6.2610e-01  1.1575e-02  1.0612e-02  4.4689e-03  0:02:24 1821
   180  1.1592e-02  2.8832e-03  1.0117e-02  6.1201e-01  1.1573e-02  1.0657e-02  4.5051e-03  0:01:55 1820
   181  1.1580e-02  2.8706e-03  1.0066e-02  5.9439e-01  1.1561e-02  1.0695e-02  4.5084e-03  0:01:32 1819
   182  1.1549e-02  2.8553e-03  9.9997e-03  5.7414e-01  1.1532e-02  1.0734e-02  4.5354e-03  0:07:17 1818
   183  1.1536e-02  2.8422e-03  9.9474e-03  5.5129e-01  1.1519e-02  1.0793e-02  4.5457e-03  0:05:49 1817
   184  1.1497e-02  2.8281e-03  9.8872e-03  5.2619e-01  1.1481e-02  1.0887e-02  4.5316e-03  0:04:39 1816
   185  1.1446e-02  2.8124e-03  9.8216e-03  4.9928e-01  1.1430e-02  1.0934e-02  4.5314e-03  0:03:43 1815
   186  1.1425e-02  2.7957e-03  9.7747e-03  4.7211e-01  1.1411e-02  1.1000e-02  4.5301e-03  0:02:59 1814
   187  1.1373e-02  2.7773e-03  9.7225e-03  4.4449e-01  1.1359e-02  1.1085e-02  4.5379e-03  0:02:23 1813

  iter  continuity  x-velocity  y-velocity  z-velocity      energy           k       omega     time/iter
   188  1.1302e-02  2.7585e-03  9.6756e-03  4.1761e-01  1.1288e-02  1.1203e-02  4.5475e-03  0:01:54 1812
   189  1.1250e-02  2.7382e-03  9.6320e-03  3.9358e-01  1.1237e-02  1.1323e-02  4.5445e-03  0:07:33 1811
   190  1.1179e-02  2.7198e-03  9.5912e-03  3.7223e-01  1.1167e-02  1.1383e-02  4.5422e-03  0:06:03 1810
   191  1.1075e-02  2.7030e-03  9.5498e-03  3.5638e-01  1.1063e-02  1.1445e-02  4.5507e-03  0:04:50 1809
   192  1.0967e-02  2.6862e-03  9.5161e-03  3.4682e-01  1.0955e-02  1.1571e-02  4.5620e-03  0:03:52 1808
   193  1.0827e-02  2.6702e-03  9.4802e-03  3.4459e-01  1.0816e-02  1.1649e-02  4.5463e-03  0:03:05 1807
   194  1.0642e-02  2.6566e-03  9.4445e-03  3.4988e-01  1.0631e-02  1.1730e-02  4.5404e-03  0:02:28 1806
   195  1.0443e-02  2.6385e-03  9.4166e-03  3.6143e-01  1.0432e-02  1.1796e-02  4.5302e-03  0:01:58 1805
   196  1.0212e-02  2.6193e-03  9.3991e-03  3.7858e-01  1.0201e-02  1.1981e-02  4.5235e-03  0:07:36 1804
   197  9.9607e-03  2.5944e-03  9.3869e-03  3.9950e-01  9.9497e-03  1.2133e-02  4.5335e-03  0:06:04 1803
   198  9.6878e-03  2.5670e-03  9.3736e-03  4.2277e-01  9.6767e-03  1.2147e-02  4.5186e-03  0:04:51 1802

  iter  continuity  x-velocity  y-velocity  z-velocity      energy           k       omega     time/iter
   199  9.3818e-03  2.5376e-03  9.3665e-03  4.4621e-01  9.3706e-03  1.2296e-02  4.5150e-03  0:03:53 1801
   200  9.0697e-03  2.5100e-03  9.3646e-03  4.6965e-01  9.0583e-03  1.2407e-02  4.5144e-03  0:03:06 1800
   201  8.7169e-03  2.4829e-03  9.3605e-03  4.9079e-01  8.7053e-03  1.2354e-02  4.4926e-03  0:02:29 1799
   202  8.3300e-03  2.4541e-03  9.3649e-03  5.0969e-01  8.3182e-03  1.2353e-02  4.4718e-03  0:01:59 1798
   203  7.9279e-03  2.4266e-03  9.3750e-03  5.2228e-01  7.9159e-03  1.2578e-02  4.4794e-03  0:07:35 1797
   204  7.5423e-03  2.4011e-03  9.4012e-03  5.3340e-01  7.5299e-03  1.2621e-02  4.4606e-03  0:06:03 1796
   205  7.1894e-03  2.3776e-03  9.4341e-03  5.4317e-01  7.1766e-03  1.2620e-02  4.4496e-03  0:04:51 1795
   206  6.8872e-03  2.3568e-03  9.4779e-03  5.5066e-01  6.8741e-03  1.2752e-02  4.4520e-03  0:03:52 1794
   207  6.6495e-03  2.3380e-03  9.5282e-03  5.5617e-01  6.6360e-03  1.2791e-02  4.4195e-03  0:03:06 1793
   208  6.4837e-03  2.3228e-03  9.5824e-03  5.5906e-01  6.4701e-03  1.2620e-02  4.3735e-03  0:02:29 1792
   209  6.3777e-03  2.3098e-03  9.6387e-03  5.5928e-01  6.3642e-03  1.2716e-02  4.3549e-03  0:01:59 1791

  iter  continuity  x-velocity  y-velocity  z-velocity      energy           k       omega     time/iter
   210  6.3257e-03  2.2994e-03  9.6927e-03  5.5650e-01  6.3123e-03  1.2834e-02  4.3483e-03  0:01:35 1790
   211  6.3086e-03  2.2953e-03  9.7475e-03  5.5123e-01  6.2955e-03  1.2606e-02  4.3309e-03  0:07:14 1789
   212  6.2988e-03  2.2912e-03  9.8044e-03  5.4369e-01  6.2860e-03  1.2575e-02  4.3222e-03  0:05:47 1788
   213  6.2772e-03  2.2867e-03  9.8624e-03  5.3442e-01  6.2647e-03  1.2632e-02  4.2927e-03  0:04:37 1787
   214  6.2531e-03  2.2820e-03  9.9250e-03  5.2354e-01  6.2407e-03  1.2634e-02  4.2682e-03  0:03:42 1786
   215  6.2097e-03  2.2805e-03  9.9910e-03  5.1173e-01  6.1974e-03  1.2457e-02  4.2288e-03  0:02:57 1785
   216  6.1687e-03  2.2845e-03  1.0062e-02  4.9910e-01  6.1565e-03  1.2450e-02  4.2040e-03  0:02:22 1784
   217  6.1152e-03  2.2923e-03  1.0141e-02  4.8618e-01  6.1029e-03  1.2572e-02  4.2057e-03  0:01:53 1783
   218  6.0443e-03  2.3012e-03  1.0218e-02  4.7345e-01  6.0318e-03  1.2387e-02  4.2006e-03  0:07:27 1782
   219  5.9565e-03  2.3095e-03  1.0293e-02  4.6099e-01  5.9439e-03  1.2343e-02  4.2012e-03  0:05:57 1781
   220  5.8679e-03  2.3104e-03  1.0367e-02  4.4856e-01  5.8551e-03  1.2336e-02  4.2020e-03  0:04:46 1780

  iter  continuity  x-velocity  y-velocity  z-velocity      energy           k       omega     time/iter
   221  5.8041e-03  2.3164e-03  1.0437e-02  4.3684e-01  5.7912e-03  1.2367e-02  4.1982e-03  0:03:48 1779
   222  5.7110e-03  2.3243e-03  1.0507e-02  4.2513e-01  5.6979e-03  1.2161e-02  4.1958e-03  0:03:03 1778
   223  5.6283e-03  2.3331e-03  1.0565e-02  4.1357e-01  5.6151e-03  1.2093e-02  4.2014e-03  0:02:26 1777
   224  5.5638e-03  2.3412e-03  1.0615e-02  4.0334e-01  5.5503e-03  1.2136e-02  4.2112e-03  0:07:52 1776
   225  5.5081e-03  2.3489e-03  1.0663e-02  3.9462e-01  5.4944e-03  1.2147e-02  4.2176e-03  0:06:17 1775
   226  5.4423e-03  2.3553e-03  1.0708e-02  3.8779e-01  5.4285e-03  1.2011e-02  4.2197e-03  0:05:02 1774
   227  5.3953e-03  2.3607e-03  1.0750e-02  3.8213e-01  5.3815e-03  1.2011e-02  4.2292e-03  0:04:01 1773
   228  5.4046e-03  2.3692e-03  1.0794e-02  3.7668e-01  5.3907e-03  1.2004e-02  4.2256e-03  0:03:13 1772
   229  5.4286e-03  2.3774e-03  1.0841e-02  3.7117e-01  5.4146e-03  1.2002e-02  4.2242e-03  0:02:34 1771
   230  5.4818e-03  2.3843e-03  1.0886e-02  3.6688e-01  5.4679e-03  1.1889e-02  4.2212e-03  0:02:03 1770
   231  5.5560e-03  2.3867e-03  1.0925e-02  3.6180e-01  5.5420e-03  1.1892e-02  4.2079e-03  0:07:32 1769

  iter  continuity  x-velocity  y-velocity  z-velocity      energy           k       omega     time/iter
   232  5.6266e-03  2.3819e-03  1.0960e-02  3.5677e-01  5.6127e-03  1.1870e-02  4.2204e-03  0:06:02 1768
   233  5.6606e-03  2.3795e-03  1.0989e-02  3.5383e-01  5.6469e-03  1.1874e-02  4.2222e-03  0:04:49 1767
   234  5.6786e-03  2.3782e-03  1.1015e-02  3.5145e-01  5.6652e-03  1.1742e-02  4.2300e-03  0:03:51 1766
   235  5.7178e-03  2.3838e-03  1.1038e-02  3.4933e-01  5.7045e-03  1.1656e-02  4.2221e-03  0:03:05 1765
   236  5.7460e-03  2.3942e-03  1.1061e-02  3.4692e-01  5.7328e-03  1.1676e-02  4.2126e-03  0:08:21 1764
   237  5.7982e-03  2.4082e-03  1.1091e-02  3.4447e-01  5.7851e-03  1.1679e-02  4.2182e-03  0:06:40 1763
   238  5.8861e-03  2.4271e-03  1.1124e-02  3.4150e-01  5.8730e-03  1.1624e-02  4.2190e-03  0:05:20 1762
   239  5.9850e-03  2.4393e-03  1.1158e-02  3.3823e-01  5.9719e-03  1.1610e-02  4.2278e-03  0:04:16 1761
   240  6.0844e-03  2.4533e-03  1.1190e-02  3.3708e-01  6.0715e-03  1.1603e-02  4.2368e-03  0:03:25 1760
   241  6.1944e-03  2.4676e-03  1.1217e-02  3.3635e-01  6.1816e-03  1.1613e-02  4.2370e-03  0:02:44 1759
   242  6.3703e-03  2.4849e-03  1.1244e-02  3.3455e-01  6.3575e-03  1.1607e-02  4.2397e-03  0:02:11 1758

  iter  continuity  x-velocity  y-velocity  z-velocity      energy           k       omega     time/iter
   243  6.5916e-03  2.4999e-03  1.1270e-02  3.3275e-01  6.5788e-03  1.1623e-02  4.2405e-03  0:07:36 1757
   244  6.8505e-03  2.5140e-03  1.1297e-02  3.3188e-01  6.8377e-03  1.1644e-02  4.2480e-03  0:06:05 1756
   245  7.1508e-03  2.5310e-03  1.1321e-02  3.3239e-01  7.1380e-03  1.1678e-02  4.2435e-03  0:04:51 1755
   246  7.5157e-03  2.5502e-03  1.1345e-02  3.3374e-01  7.5029e-03  1.1662e-02  4.2505e-03  0:03:53 1754
   247  7.9035e-03  2.5697e-03  1.1364e-02  3.3695e-01  7.8905e-03  1.1633e-02  4.2591e-03  0:03:06 1753
   248  8.3258e-03  2.5879e-03  1.1379e-02  3.4115e-01  8.3127e-03  1.1661e-02  4.2550e-03  0:02:29 1752
   249  8.7867e-03  2.6060e-03  1.1389e-02  3.4568e-01  8.7735e-03  1.1655e-02  4.2532e-03  0:07:49 1751
   250  9.2371e-03  2.6278e-03  1.1396e-02  3.5099e-01  9.2236e-03  1.1642e-02  4.2563e-03  0:06:15 1750
   251  9.6768e-03  2.6513e-03  1.1400e-02  3.5642e-01  9.6631e-03  1.1663e-02  4.2494e-03  0:05:00 1749
   252  1.0164e-02  2.6752e-03  1.1407e-02  3.6320e-01  1.0150e-02  1.1667e-02  4.2435e-03  0:04:00 1748
   253  1.0628e-02  2.7000e-03  1.1415e-02  3.6979e-01  1.0613e-02  1.1622e-02  4.2334e-03  0:03:12 1747

  iter  continuity  x-velocity  y-velocity  z-velocity      energy           k       omega     time/iter
   254  1.1085e-02  2.7256e-03  1.1426e-02  3.7746e-01  1.1070e-02  1.1606e-02  4.2342e-03  0:02:33 1746
   255  1.1513e-02  2.7523e-03  1.1435e-02  3.8578e-01  1.1498e-02  1.1579e-02  4.2206e-03  0:07:52 1745
   256  1.1877e-02  2.7775e-03  1.1444e-02  3.9569e-01  1.1861e-02  1.1533e-02  4.2042e-03  0:06:17 1744
   257  1.2161e-02  2.8000e-03  1.1454e-02  4.0550e-01  1.2145e-02  1.1499e-02  4.1998e-03  0:05:01 1743
   258  1.2368e-02  2.8242e-03  1.1464e-02  4.1532e-01  1.2351e-02  1.1445e-02  4.1856e-03  0:04:01 1742
   259  1.2498e-02  2.8469e-03  1.1476e-02  4.2392e-01  1.2481e-02  1.1409e-02  4.1771e-03  0:03:13 1741
   260  1.2587e-02  2.8722e-03  1.1492e-02  4.3244e-01  1.2570e-02  1.1404e-02  4.1706e-03  0:02:34 1740
   261  1.2658e-02  2.8968e-03  1.1514e-02  4.3995e-01  1.2640e-02  1.1368e-02  4.1590e-03  0:07:51 1739
   262  1.2711e-02  2.9236e-03  1.1546e-02  4.4645e-01  1.2694e-02  1.1320e-02  4.1376e-03  0:06:17 1738
   263  1.2741e-02  2.9521e-03  1.1587e-02  4.5237e-01  1.2723e-02  1.1272e-02  4.1209e-03  0:05:01 1737
   264  1.2750e-02  2.9820e-03  1.1634e-02  4.5704e-01  1.2731e-02  1.1221e-02  4.1052e-03  0:04:01 1736

  iter  continuity  x-velocity  y-velocity  z-velocity      energy           k       omega     time/iter
   265  1.2751e-02  3.0084e-03  1.1689e-02  4.6126e-01  1.2732e-02  1.1162e-02  4.0780e-03  0:03:12 1735
   266  1.2750e-02  3.0333e-03  1.1751e-02  4.6522e-01  1.2731e-02  1.1106e-02  4.0585e-03  0:02:34 1734
   267  1.2720e-02  3.0562e-03  1.1817e-02  4.6804e-01  1.2701e-02  1.1068e-02  4.0350e-03  0:07:50 1733
   268  1.2666e-02  3.0735e-03  1.1885e-02  4.7003e-01  1.2647e-02  1.1011e-02  4.0240e-03  0:06:15 1732
   269  1.2591e-02  3.0838e-03  1.1956e-02  4.7088e-01  1.2571e-02  1.0970e-02  4.0137e-03  0:05:00 1731
   270  1.2495e-02  3.0903e-03  1.2033e-02  4.7058e-01  1.2475e-02  1.0912e-02  4.0036e-03  0:04:00 1730
   271  1.2378e-02  3.0909e-03  1.2115e-02  4.6914e-01  1.2358e-02  1.0872e-02  3.9851e-03  0:03:12 1729
   272  1.2257e-02  3.0842e-03  1.2200e-02  4.6618e-01  1.2237e-02  1.0833e-02  3.9650e-03  0:02:33 1728
   273  1.2129e-02  3.0713e-03  1.2293e-02  4.6110e-01  1.2109e-02  1.0818e-02  3.9496e-03  0:02:03 1727
   274  1.2012e-02  3.0500e-03  1.2393e-02  4.5540e-01  1.1993e-02  1.0765e-02  3.9237e-03  0:07:23 1726
   275  1.1875e-02  3.0248e-03  1.2495e-02  4.4856e-01  1.1855e-02  1.0723e-02  3.8866e-03  0:05:54 1725

  iter  continuity  x-velocity  y-velocity  z-velocity      energy           k       omega     time/iter
   276  1.1713e-02  2.9955e-03  1.2595e-02  4.4168e-01  1.1694e-02  1.0710e-02  3.8640e-03  0:04:43 1724
   277  1.1544e-02  2.9654e-03  1.2690e-02  4.3444e-01  1.1526e-02  1.0651e-02  3.8433e-03  0:03:47 1723
   278  1.1363e-02  2.9323e-03  1.2781e-02  4.2779e-01  1.1344e-02  1.0624e-02  3.8195e-03  0:03:01 1722
   279  1.1193e-02  2.8941e-03  1.2870e-02  4.2162e-01  1.1175e-02  1.0570e-02  3.8092e-03  0:02:25 1721
   280  1.1036e-02  2.8498e-03  1.2958e-02  4.1697e-01  1.1018e-02  1.0539e-02  3.7972e-03  0:07:40 1720
   281  1.0934e-02  2.8027e-03  1.3044e-02  4.1263e-01  1.0917e-02  1.0513e-02  3.7812e-03  0:06:08 1719
   282  1.0887e-02  2.7550e-03  1.3130e-02  4.0796e-01  1.0871e-02  1.0485e-02  3.7685e-03  0:04:54 1718
   283  1.0729e-02  2.7106e-03  1.3210e-02  4.0431e-01  1.0713e-02  1.0479e-02  3.7661e-03  0:03:55 1717
   284  1.0564e-02  2.6760e-03  1.3279e-02  4.0151e-01  1.0548e-02  1.0446e-02  3.7560e-03  0:03:08 1716
   285  1.0406e-02  2.6504e-03  1.3334e-02  4.0050e-01  1.0391e-02  1.0412e-02  3.7454e-03  0:02:30 1715
   286  1.0277e-02  2.6274e-03  1.3378e-02  4.0139e-01  1.0262e-02  1.0377e-02  3.7517e-03  0:07:43 1714

  iter  continuity  x-velocity  y-velocity  z-velocity      energy           k       omega     time/iter
   287  1.0175e-02  2.6059e-03  1.3416e-02  4.0456e-01  1.0162e-02  1.0361e-02  3.7578e-03  0:06:10 1713
   288  1.0081e-02  2.5852e-03  1.3450e-02  4.0960e-01  1.0067e-02  1.0341e-02  3.7653e-03  0:04:56 1712
   289  9.9775e-03  2.5648e-03  1.3476e-02  4.1657e-01  9.9646e-03  1.0305e-02  3.7729e-03  0:03:57 1711
   290  9.8442e-03  2.5487e-03  1.3497e-02  4.2351e-01  9.8316e-03  1.0289e-02  3.7725e-03  0:03:09 1710
   291  9.6187e-03  2.5432e-03  1.3519e-02  4.2872e-01  9.6065e-03  1.0278e-02  3.7716e-03  0:02:31 1709
   292  9.2980e-03  2.5484e-03  1.3537e-02  4.3247e-01  9.2864e-03  1.0252e-02  3.7708e-03  0:07:43 1708
   293  8.8867e-03  2.5604e-03  1.3546e-02  4.3403e-01  8.8757e-03  1.0211e-02  3.7627e-03  0:06:10 1707
   294  8.4325e-03  2.5781e-03  1.3551e-02  4.3398e-01  8.4221e-03  1.0215e-02  3.7602e-03  0:04:56 1706
   295  8.0165e-03  2.6026e-03  1.3549e-02  4.3300e-01  8.0068e-03  1.0212e-02  3.7642e-03  0:03:56 1705
   296  7.6902e-03  2.6318e-03  1.3544e-02  4.3185e-01  7.6808e-03  1.0197e-02  3.7827e-03  0:03:09 1704
   297  7.4581e-03  2.6703e-03  1.3538e-02  4.3179e-01  7.4490e-03  1.0165e-02  3.7993e-03  0:02:31 1703

  iter  continuity  x-velocity  y-velocity  z-velocity      energy           k       omega     time/iter
   298  7.2946e-03  2.7065e-03  1.3526e-02  4.3327e-01  7.2855e-03  1.0153e-02  3.8104e-03  0:02:01 1702
   299  7.1872e-03  2.7361e-03  1.3511e-02  4.3913e-01  7.1781e-03  1.0136e-02  3.8125e-03  0:07:17 1701
   300  7.0862e-03  2.7713e-03  1.3495e-02  4.4181e-01  7.0769e-03  1.0135e-02  3.8167e-03  0:05:49 1700
   301  6.9809e-03  2.8106e-03  1.3475e-02  4.4488e-01  6.9715e-03  1.0138e-02  3.8344e-03  0:04:39 1699
   302  6.8738e-03  2.8462e-03  1.3461e-02  4.4807e-01  6.8642e-03  1.0141e-02  3.8402e-03  0:03:43 1698
   303  6.7607e-03  2.8859e-03  1.3434e-02  4.5174e-01  6.7510e-03  1.0132e-02  3.8331e-03  0:02:58 1697
   304  6.6827e-03  2.9263e-03  1.3400e-02  4.5617e-01  6.6728e-03  1.0144e-02  3.8324e-03  0:02:23 1696
   305  6.6862e-03  2.9669e-03  1.3367e-02  4.6348e-01  6.6760e-03  1.0127e-02  3.8294e-03  0:07:33 1695
   306  6.7649e-03  3.0073e-03  1.3324e-02  4.7169e-01  6.7545e-03  1.0095e-02  3.8313e-03  0:06:02 1694
   307  6.7355e-03  3.0421e-03  1.3253e-02  4.7957e-01  6.7246e-03  1.0090e-02  3.8459e-03  0:04:50 1693
   308  6.7164e-03  3.0768e-03  1.3178e-02  4.8989e-01  6.7050e-03  1.0109e-02  3.8550e-03  0:03:52 1692

  iter  continuity  x-velocity  y-velocity  z-velocity      energy           k       omega     time/iter
   309  6.7520e-03  3.1125e-03  1.3108e-02  5.0317e-01  6.7399e-03  1.0111e-02  3.8525e-03  0:03:05 1691
   310  6.8497e-03  3.1517e-03  1.3043e-02  5.1867e-01  6.8371e-03  1.0139e-02  3.8662e-03  0:02:28 1690
   311  7.0024e-03  3.1781e-03  1.2908e-02  5.3538e-01  6.9895e-03  1.0147e-02  3.8766e-03  0:01:58 1689
   312  7.0878e-03  3.2047e-03  1.2787e-02  5.5484e-01  7.0744e-03  1.0146e-02  3.8926e-03  0:07:12 1688
   313  7.1542e-03  3.2363e-03  1.2686e-02  5.7633e-01  7.1403e-03  1.0137e-02  3.9022e-03  0:05:46 1687
   314  7.3356e-03  3.2593e-03  1.2595e-02  6.0097e-01  7.3214e-03  1.0117e-02  3.9254e-03  0:04:36 1686
   315  7.5145e-03  3.2796e-03  1.2485e-02  6.2533e-01  7.5000e-03  1.0117e-02  3.9465e-03  0:03:41 1685
   316  7.6984e-03  3.2958e-03  1.2351e-02  6.5065e-01  7.6835e-03  1.0143e-02  3.9595e-03  0:02:57 1684
   317  7.9710e-03  3.3096e-03  1.2223e-02  6.7862e-01  7.9559e-03  1.0159e-02  3.9752e-03  0:02:21 1683
   318  8.2795e-03  3.3164e-03  1.2102e-02  7.0625e-01  8.2641e-03  1.0196e-02  3.9757e-03  0:07:29 1682
   319  8.5332e-03  3.3263e-03  1.1965e-02  7.3112e-01  8.5175e-03  1.0216e-02  3.9743e-03  0:05:59 1681

  iter  continuity  x-velocity  y-velocity  z-velocity      energy           k       omega     time/iter
   320  8.7631e-03  3.3343e-03  1.1835e-02  7.5547e-01  8.7471e-03  1.0206e-02  3.9932e-03  0:04:47 1680
   321  8.9743e-03  3.3412e-03  1.1705e-02  7.7611e-01  8.9581e-03  1.0206e-02  3.9990e-03  0:03:50 1679
   322  9.2165e-03  3.3409e-03  1.1572e-02  7.9598e-01  9.2002e-03  1.0184e-02  4.0015e-03  0:03:04 1678
   323  9.5279e-03  3.3451e-03  1.1458e-02  8.1290e-01  9.5114e-03  1.0167e-02  4.0229e-03  0:02:27 1677
   324  9.8262e-03  3.3441e-03  1.1336e-02  8.2628e-01  9.8095e-03  1.0200e-02  4.0394e-03  0:07:33 1676
   325  1.0090e-02  3.3391e-03  1.1224e-02  8.3434e-01  1.0073e-02  1.0248e-02  4.0542e-03  0:06:02 1675
   326  1.0271e-02  3.3226e-03  1.1106e-02  8.3933e-01  1.0254e-02  1.0292e-02  4.0640e-03  0:04:49 1674
   327  1.0423e-02  3.3017e-03  1.1016e-02  8.4266e-01  1.0406e-02  1.0352e-02  4.0744e-03  0:03:51 1673
   328  1.0559e-02  3.2833e-03  1.0934e-02  8.4143e-01  1.0543e-02  1.0387e-02  4.0761e-03  0:03:05 1672
   329  1.0664e-02  3.2607e-03  1.0868e-02  8.3722e-01  1.0647e-02  1.0393e-02  4.0908e-03  0:08:02 1671
   330  1.0758e-02  3.2375e-03  1.0809e-02  8.3002e-01  1.0742e-02  1.0390e-02  4.1047e-03  0:06:25 1670

  iter  continuity  x-velocity  y-velocity  z-velocity      energy           k       omega     time/iter
   331  1.0804e-02  3.2092e-03  1.0758e-02  8.1960e-01  1.0788e-02  1.0431e-02  4.1195e-03  0:05:08 1669
   332  1.0806e-02  3.1761e-03  1.0728e-02  8.0572e-01  1.0790e-02  1.0473e-02  4.1302e-03  0:04:06 1668
   333  1.0736e-02  3.1441e-03  1.0720e-02  7.8835e-01  1.0720e-02  1.0522e-02  4.1274e-03  0:03:17 1667
   334  1.0656e-02  3.1089e-03  1.0736e-02  7.6724e-01  1.0640e-02  1.0577e-02  4.1404e-03  0:02:37 1666
   335  1.0555e-02  3.0671e-03  1.0773e-02  7.4468e-01  1.0539e-02  1.0631e-02  4.1550e-03  0:07:39 1665
   336  1.0391e-02  3.0189e-03  1.0830e-02  7.2110e-01  1.0375e-02  1.0683e-02  4.1773e-03  0:06:07 1664
   337  1.0176e-02  2.9697e-03  1.0900e-02  6.9546e-01  1.0161e-02  1.0773e-02  4.1912e-03  0:04:53 1663
   338  9.9357e-03  2.9182e-03  1.0989e-02  6.6970e-01  9.9212e-03  1.0841e-02  4.1964e-03  0:03:55 1662
   339  9.6860e-03  2.8646e-03  1.1083e-02  6.4370e-01  9.6720e-03  1.0892e-02  4.2168e-03  0:03:08 1661
   340  9.4451e-03  2.8134e-03  1.1178e-02  6.2173e-01  9.4316e-03  1.0945e-02  4.2376e-03  0:08:02 1660
   341  9.1734e-03  2.7639e-03  1.1273e-02  5.9727e-01  9.1602e-03  1.0987e-02  4.2560e-03  0:06:25 1659

  iter  continuity  x-velocity  y-velocity  z-velocity      energy           k       omega     time/iter
   342  8.8873e-03  2.7203e-03  1.1368e-02  5.7553e-01  8.8744e-03  1.1049e-02  4.2734e-03  0:05:08 1658
   343  8.6010e-03  2.6833e-03  1.1469e-02  5.5865e-01  8.5884e-03  1.1112e-02  4.2936e-03  0:04:06 1657
   344  8.3220e-03  2.6606e-03  1.1566e-02  5.4515e-01  8.3095e-03  1.1177e-02  4.3077e-03  0:03:17 1656
   345  8.0447e-03  2.6522e-03  1.1671e-02  5.3527e-01  8.0322e-03  1.1223e-02  4.3258e-03  0:02:37 1655
   346  7.7917e-03  2.6416e-03  1.1783e-02  5.3102e-01  7.7792e-03  1.1268e-02  4.3310e-03  0:07:37 1654
   347  7.5674e-03  2.6394e-03  1.1895e-02  5.3303e-01  7.5549e-03  1.1303e-02  4.3465e-03  0:06:05 1653
   348  7.3455e-03  2.6473e-03  1.2003e-02  5.3952e-01  7.3331e-03  1.1342e-02  4.3519e-03  0:04:52 1652
   349  7.1271e-03  2.6587e-03  1.2095e-02  5.5017e-01  7.1147e-03  1.1386e-02  4.3702e-03  0:03:53 1651
   350  6.9141e-03  2.6731e-03  1.2168e-02  5.6402e-01  6.9018e-03  1.1426e-02  4.3875e-03  0:03:07 1650
   351  6.7495e-03  2.6901e-03  1.2224e-02  5.8554e-01  6.7371e-03  1.1455e-02  4.4061e-03  0:02:29 1649
   352  6.6297e-03  2.7127e-03  1.2273e-02  6.0207e-01  6.6173e-03  1.1514e-02  4.4448e-03  0:07:29 1648

  iter  continuity  x-velocity  y-velocity  z-velocity      energy           k       omega     time/iter
   353  6.5451e-03  2.7368e-03  1.2321e-02  6.2012e-01  6.5326e-03  1.1578e-02  4.4932e-03  0:05:59 1647
   354  6.5036e-03  2.7632e-03  1.2369e-02  6.3777e-01  6.4909e-03  1.1587e-02  4.5232e-03  0:04:47 1646
   355  6.5124e-03  2.7957e-03  1.2412e-02  6.5598e-01  6.4996e-03  1.1585e-02  4.5499e-03  0:03:49 1645
   356  6.5533e-03  2.8365e-03  1.2443e-02  6.7153e-01  6.5404e-03  1.1604e-02  4.5820e-03  0:03:03 1644
   357  6.5729e-03  2.8794e-03  1.2463e-02  6.8477e-01  6.5599e-03  1.1633e-02  4.6150e-03  0:02:27 1643
   358  6.6203e-03  2.9185e-03  1.2477e-02  6.9704e-01  6.6074e-03  1.1651e-02  4.6261e-03  0:07:26 1642
   359  6.7038e-03  2.9607e-03  1.2475e-02  7.0666e-01  6.6911e-03  1.1691e-02  4.6322e-03  0:05:56 1641
   360  6.7955e-03  3.0001e-03  1.2456e-02  7.1371e-01  6.7829e-03  1.1742e-02  4.6453e-03  0:04:45 1640
   361  6.9250e-03  3.0294e-03  1.2433e-02  7.1977e-01  6.9126e-03  1.1768e-02  4.6627e-03  0:03:48 1639
   362  7.0833e-03  3.0499e-03  1.2407e-02  7.2322e-01  7.0709e-03  1.1732e-02  4.6810e-03  0:03:02 1638
   363  7.2260e-03  3.0682e-03  1.2381e-02  7.2371e-01  7.2137e-03  1.1725e-02  4.7021e-03  0:07:53 1637

  iter  continuity  x-velocity  y-velocity  z-velocity      energy           k       omega     time/iter
   364  7.3321e-03  3.0826e-03  1.2349e-02  7.2283e-01  7.3198e-03  1.1713e-02  4.6980e-03  0:06:18 1636
   365  7.4331e-03  3.0900e-03  1.2310e-02  7.2230e-01  7.4210e-03  1.1666e-02  4.7138e-03  0:05:02 1635
   366  7.5359e-03  3.1007e-03  1.2265e-02  7.2073e-01  7.5238e-03  1.1706e-02  4.7322e-03  0:04:02 1634
   367  7.6300e-03  3.1105e-03  1.2215e-02  7.1728e-01  7.6178e-03  1.1705e-02  4.7394e-03  0:03:13 1633
   368  7.7487e-03  3.1224e-03  1.2161e-02  7.1205e-01  7.7363e-03  1.1719e-02  4.7522e-03  0:02:35 1632
   369  7.8868e-03  3.1274e-03  1.2104e-02  7.0544e-01  7.8741e-03  1.1736e-02  4.7541e-03  0:07:30 1631
   370  8.0118e-03  3.1302e-03  1.2054e-02  6.9834e-01  7.9989e-03  1.1688e-02  4.7385e-03  0:06:00 1630
   371  8.1100e-03  3.1319e-03  1.2016e-02  6.9163e-01  8.0971e-03  1.1671e-02  4.7188e-03  0:04:47 1629
   372  8.1866e-03  3.1217e-03  1.1985e-02  6.8555e-01  8.1736e-03  1.1618e-02  4.6942e-03  0:03:50 1628
   373  8.2702e-03  3.1056e-03  1.1957e-02  6.7821e-01  8.2571e-03  1.1576e-02  4.6762e-03  0:03:04 1627
   374  8.3602e-03  3.0827e-03  1.1931e-02  6.7053e-01  8.3471e-03  1.1580e-02  4.6862e-03  0:02:27 1626

  iter  continuity  x-velocity  y-velocity  z-velocity      energy           k       omega     time/iter
   375  8.4787e-03  3.0524e-03  1.1909e-02  6.6189e-01  8.4653e-03  1.1568e-02  4.6826e-03  0:07:22 1625
   376  8.6458e-03  3.0161e-03  1.1891e-02  6.5329e-01  8.6321e-03  1.1556e-02  4.6700e-03  0:05:54 1624
   377  8.8313e-03  2.9750e-03  1.1878e-02  6.4547e-01  8.8173e-03  1.1522e-02  4.6443e-03  0:04:43 1623
   378  9.0278e-03  2.9317e-03  1.1871e-02  6.3861e-01  9.0137e-03  1.1472e-02  4.5945e-03  0:03:46 1622
   379  9.2277e-03  2.8856e-03  1.1878e-02  6.3238e-01  9.2134e-03  1.1382e-02  4.5568e-03  0:03:01 1621
   380  9.4766e-03  2.8352e-03  1.1896e-02  6.2674e-01  9.4622e-03  1.1332e-02  4.5284e-03  0:02:25 1620
   381  9.7177e-03  2.7912e-03  1.1919e-02  6.2073e-01  9.7032e-03  1.1272e-02  4.4906e-03  0:07:19 1619
   382  9.9389e-03  2.7440e-03  1.1947e-02  6.1466e-01  9.9244e-03  1.1213e-02  4.4552e-03  0:05:51 1618
   383  1.0175e-02  2.6913e-03  1.1979e-02  6.0881e-01  1.0161e-02  1.1181e-02  4.4178e-03  0:04:41 1617
   384  1.0448e-02  2.6374e-03  1.2017e-02  6.0273e-01  1.0433e-02  1.1132e-02  4.3876e-03  0:03:45 1616
   385  1.0708e-02  2.5867e-03  1.2059e-02  5.9613e-01  1.0693e-02  1.1089e-02  4.3405e-03  0:03:00 1615

  iter  continuity  x-velocity  y-velocity  z-velocity      energy           k       omega     time/iter
   386  1.0995e-02  2.5391e-03  1.2108e-02  5.9075e-01  1.0979e-02  1.1021e-02  4.3003e-03  0:07:46 1614
   387  1.1263e-02  2.4938e-03  1.2165e-02  5.8436e-01  1.1248e-02  1.0986e-02  4.2513e-03  0:06:13 1613
   388  1.1530e-02  2.4502e-03  1.2232e-02  5.7875e-01  1.1515e-02  1.0922e-02  4.2140e-03  0:04:58 1612
   389  1.1767e-02  2.4167e-03  1.2308e-02  5.7284e-01  1.1752e-02  1.0853e-02  4.1783e-03  0:03:58 1611
   390  1.2000e-02  2.3929e-03  1.2389e-02  5.6630e-01  1.1985e-02  1.0804e-02  4.1298e-03  0:03:11 1610
   391  1.2254e-02  2.3736e-03  1.2475e-02  5.5900e-01  1.2238e-02  1.0754e-02  4.0888e-03  0:02:32 1609
   392  1.2412e-02  2.3539e-03  1.2563e-02  5.5261e-01  1.2397e-02  1.0712e-02  4.0570e-03  0:07:23 1608
   393  1.2461e-02  2.3307e-03  1.2651e-02  5.4606e-01  1.2446e-02  1.0664e-02  4.0151e-03  0:05:54 1607
   394  1.2490e-02  2.3092e-03  1.2742e-02  5.3819e-01  1.2475e-02  1.0628e-02  3.9576e-03  0:04:43 1606
   395  1.2463e-02  2.2929e-03  1.2833e-02  5.2976e-01  1.2448e-02  1.0613e-02  3.9227e-03  0:03:47 1605
   396  1.2418e-02  2.2835e-03  1.2924e-02  5.2080e-01  1.2403e-02  1.0591e-02  3.8911e-03  0:03:01 1604

  iter  continuity  x-velocity  y-velocity  z-velocity      energy           k       omega     time/iter
   397  1.2369e-02  2.2777e-03  1.3020e-02  5.1252e-01  1.2354e-02  1.0571e-02  3.8538e-03  0:07:45 1603
   398  1.2292e-02  2.2737e-03  1.3119e-02  5.0299e-01  1.2278e-02  1.0536e-02  3.8316e-03  0:06:12 1602
   399  1.2189e-02  2.2710e-03  1.3218e-02  4.9409e-01  1.2175e-02  1.0515e-02  3.8267e-03  0:04:58 1601
   400  1.2067e-02  2.2684e-03  1.3310e-02  4.8662e-01  1.2054e-02  1.0510e-02  3.7912e-03  0:03:58 1600
   401  1.1922e-02  2.2655e-03  1.3397e-02  4.8183e-01  1.1910e-02  1.0514e-02  3.7609e-03  0:03:10 1599
   402  1.1742e-02  2.2567e-03  1.3472e-02  4.7772e-01  1.1730e-02  1.0491e-02  3.7376e-03  0:02:32 1598
   403  1.1533e-02  2.2480e-03  1.3535e-02  4.7438e-01  1.1521e-02  1.0480e-02  3.7163e-03  0:07:21 1597
   404  1.1277e-02  2.2419e-03  1.3588e-02  4.7126e-01  1.1266e-02  1.0471e-02  3.7096e-03  0:05:53 1596
   405  1.0977e-02  2.2405e-03  1.3631e-02  4.6711e-01  1.0967e-02  1.0456e-02  3.7146e-03  0:04:42 1595
   406  1.0665e-02  2.2392e-03  1.3666e-02  4.6258e-01  1.0655e-02  1.0435e-02  3.7153e-03  0:03:45 1594
   407  1.0350e-02  2.2462e-03  1.3688e-02  4.5872e-01  1.0341e-02  1.0460e-02  3.7361e-03  0:03:00 1593

  iter  continuity  x-velocity  y-velocity  z-velocity      energy           k       omega     time/iter
   408  1.0033e-02  2.2559e-03  1.3696e-02  4.5557e-01  1.0024e-02  1.0474e-02  3.7553e-03  0:02:24 1592
   409  9.7051e-03  2.2630e-03  1.3694e-02  4.5287e-01  9.6972e-03  1.0491e-02  3.7650e-03  0:07:13 1591
   410  9.3803e-03  2.2727e-03  1.3679e-02  4.5206e-01  9.3729e-03  1.0499e-02  3.7580e-03  0:05:46 1590
   411  9.0812e-03  2.2832e-03  1.3643e-02  4.5250e-01  9.0743e-03  1.0525e-02  3.7370e-03  0:04:37 1589
   412  8.8008e-03  2.2968e-03  1.3599e-02  4.5300e-01  8.7943e-03  1.0530e-02  3.7323e-03  0:03:41 1588
   413  8.5436e-03  2.3128e-03  1.3548e-02  4.5290e-01  8.5372e-03  1.0546e-02  3.7356e-03  0:02:57 1587
   414  8.2940e-03  2.3332e-03  1.3493e-02  4.5179e-01  8.2876e-03  1.0553e-02  3.7425e-03  0:07:39 1586
   415  8.0745e-03  2.3546e-03  1.3437e-02  4.5102e-01  8.0679e-03  1.0571e-02  3.7618e-03  0:06:07 1585
   416  7.8753e-03  2.3773e-03  1.3371e-02  4.4971e-01  7.8684e-03  1.0610e-02  3.7783e-03  0:04:53 1584
   417  7.6957e-03  2.4032e-03  1.3294e-02  4.4870e-01  7.6885e-03  1.0656e-02  3.7892e-03  0:03:54 1583
   418  7.5646e-03  2.4326e-03  1.3206e-02  4.4829e-01  7.5569e-03  1.0669e-02  3.7967e-03  0:03:07 1582

  iter  continuity  x-velocity  y-velocity  z-velocity      energy           k       omega     time/iter
   419  7.5451e-03  2.4602e-03  1.3103e-02  4.4926e-01  7.5369e-03  1.0677e-02  3.7984e-03  0:07:46 1581
   420  7.4646e-03  2.4874e-03  1.2992e-02  4.5369e-01  7.4559e-03  1.0713e-02  3.7768e-03  0:06:13 1580
   421  7.3560e-03  2.5124e-03  1.2855e-02  4.5691e-01  7.3465e-03  1.0721e-02  3.7737e-03  0:04:58 1579
   422  7.2751e-03  2.5290e-03  1.2702e-02  4.6041e-01  7.2649e-03  1.0738e-02  3.7602e-03  0:03:58 1578
   423  7.2660e-03  2.5487e-03  1.2584e-02  4.6698e-01  7.2550e-03  1.0768e-02  3.7610e-03  0:03:10 1577
   424  7.2674e-03  2.5700e-03  1.2459e-02  4.7107e-01  7.2557e-03  1.0805e-02  3.7685e-03  0:07:47 1576
   425  7.2959e-03  2.5861e-03  1.2341e-02  4.7454e-01  7.2836e-03  1.0837e-02  3.7790e-03  0:06:14 1575
   426  7.3017e-03  2.6046e-03  1.2235e-02  4.7962e-01  7.2889e-03  1.0904e-02  3.7816e-03  0:04:59 1574
   427  7.3644e-03  2.6260e-03  1.2130e-02  4.8331e-01  7.3514e-03  1.0965e-02  3.7899e-03  0:03:59 1573
   428  7.5007e-03  2.6339e-03  1.2010e-02  4.8650e-01  7.4876e-03  1.1027e-02  3.8076e-03  0:03:11 1572
   429  7.6726e-03  2.6411e-03  1.1889e-02  4.8954e-01  7.6595e-03  1.1077e-02  3.8187e-03  0:07:47 1571

  iter  continuity  x-velocity  y-velocity  z-velocity      energy           k       omega     time/iter
   430  7.9561e-03  2.6493e-03  1.1779e-02  4.9550e-01  7.9431e-03  1.1109e-02  3.8177e-03  0:06:13 1570
   431  8.2764e-03  2.6599e-03  1.1663e-02  4.9970e-01  8.2636e-03  1.1154e-02  3.8217e-03  0:04:58 1569
   432  8.5861e-03  2.6629e-03  1.1560e-02  5.0227e-01  8.5736e-03  1.1196e-02  3.8198e-03  0:03:59 1568
   433  8.9615e-03  2.6587e-03  1.1459e-02  5.0558e-01  8.9494e-03  1.1245e-02  3.8082e-03  0:03:11 1567
   434  9.3413e-03  2.6447e-03  1.1370e-02  5.0941e-01  9.3295e-03  1.1269e-02  3.8143e-03  0:07:46 1566
   435  9.7420e-03  2.6213e-03  1.1291e-02  5.1040e-01  9.7307e-03  1.1312e-02  3.8295e-03  0:06:12 1565
   436  1.0156e-02  2.6014e-03  1.1213e-02  5.1215e-01  1.0146e-02  1.1358e-02  3.8432e-03  0:04:58 1564
   437  1.0540e-02  2.5858e-03  1.1151e-02  5.1585e-01  1.0530e-02  1.1400e-02  3.8449e-03  0:03:58 1563
   438  1.0940e-02  2.5719e-03  1.1090e-02  5.2110e-01  1.0930e-02  1.1442e-02  3.8498e-03  0:08:23 1562
   439  1.1329e-02  2.5597e-03  1.1027e-02  5.2723e-01  1.1319e-02  1.1458e-02  3.8562e-03  0:06:42 1561
   440  1.1633e-02  2.5425e-03  1.0974e-02  5.3136e-01  1.1623e-02  1.1491e-02  3.8555e-03  0:05:21 1560

  iter  continuity  x-velocity  y-velocity  z-velocity      energy           k       omega     time/iter
   441  1.1907e-02  2.5212e-03  1.0931e-02  5.3590e-01  1.1898e-02  1.1518e-02  3.8413e-03  0:04:17 1559
   442  1.2130e-02  2.4993e-03  1.0898e-02  5.3875e-01  1.2121e-02  1.1556e-02  3.8371e-03  0:03:25 1558
   443  1.2288e-02  2.4751e-03  1.0877e-02  5.4220e-01  1.2279e-02  1.1573e-02  3.8208e-03  0:07:56 1557
   444  1.2373e-02  2.4501e-03  1.0863e-02  5.4480e-01  1.2364e-02  1.1578e-02  3.8069e-03  0:06:20 1556
   445  1.2430e-02  2.4270e-03  1.0858e-02  5.4815e-01  1.2422e-02  1.1573e-02  3.8050e-03  0:05:04 1555
   446  1.2438e-02  2.4026e-03  1.0864e-02  5.5245e-01  1.2429e-02  1.1571e-02  3.8079e-03  0:04:03 1554
   447  1.2300e-02  2.3766e-03  1.0879e-02  5.5720e-01  1.2291e-02  1.1574e-02  3.8149e-03  0:03:14 1553
   448  1.2050e-02  2.3462e-03  1.0890e-02  5.5974e-01  1.2041e-02  1.1576e-02  3.8136e-03  0:07:46 1552
   449  1.1788e-02  2.3216e-03  1.0912e-02  5.6236e-01  1.1779e-02  1.1586e-02  3.8054e-03  0:06:12 1551
   450  1.1460e-02  2.3044e-03  1.0936e-02  5.6850e-01  1.1451e-02  1.1563e-02  3.8075e-03  0:04:58 1550
   451  1.1072e-02  2.2935e-03  1.0963e-02  5.7595e-01  1.1063e-02  1.1542e-02  3.8099e-03  0:03:58 1549

  iter  continuity  x-velocity  y-velocity  z-velocity      energy           k       omega     time/iter
   452  1.0674e-02  2.2859e-03  1.0995e-02  5.8464e-01  1.0665e-02  1.1533e-02  3.8075e-03  0:03:10 1548
   453  1.0251e-02  2.2808e-03  1.1034e-02  5.9522e-01  1.0242e-02  1.1492e-02  3.8111e-03  0:07:42 1547
   454  9.8149e-03  2.2824e-03  1.1081e-02  6.0900e-01  9.8053e-03  1.1450e-02  3.8047e-03  0:06:09 1546
   455  9.3424e-03  2.2940e-03  1.1126e-02  6.2423e-01  9.3327e-03  1.1413e-02  3.8000e-03  0:04:55 1545
   456  8.8297e-03  2.3145e-03  1.1163e-02  6.4067e-01  8.8198e-03  1.1382e-02  3.8059e-03  0:03:56 1544
   457  8.3302e-03  2.3358e-03  1.1189e-02  6.5979e-01  8.3202e-03  1.1351e-02  3.8007e-03  0:08:17 1543
   458  7.8656e-03  2.3579e-03  1.1213e-02  6.8134e-01  7.8555e-03  1.1301e-02  3.7968e-03  0:06:37 1542
   459  7.4367e-03  2.3808e-03  1.1228e-02  7.0520e-01  7.4264e-03  1.1225e-02  3.8021e-03  0:05:18 1541
   460  7.0672e-03  2.4032e-03  1.1238e-02  7.3152e-01  7.0566e-03  1.1159e-02  3.8099e-03  0:04:14 1540
   461  6.7462e-03  2.4251e-03  1.1249e-02  7.5963e-01  6.7353e-03  1.1101e-02  3.8177e-03  0:03:23 1539
   462  6.4975e-03  2.4442e-03  1.1264e-02  7.8974e-01  6.4864e-03  1.1039e-02  3.8274e-03  0:07:50 1538

  iter  continuity  x-velocity  y-velocity  z-velocity      energy           k       omega     time/iter
   463  6.3447e-03  2.4633e-03  1.1285e-02  8.2136e-01  6.3335e-03  1.0982e-02  3.8306e-03  0:06:16 1537
   464  6.2518e-03  2.4829e-03  1.1308e-02  8.5359e-01  6.2406e-03  1.0923e-02  3.8413e-03  0:05:00 1536
   465  6.2041e-03  2.4957e-03  1.1330e-02  8.8555e-01  6.1931e-03  1.0853e-02  3.8297e-03  0:04:00 1535
   466  6.2461e-03  2.5138e-03  1.1348e-02  9.1642e-01  6.2355e-03  1.0810e-02  3.8203e-03  0:03:12 1534
   467  6.3790e-03  2.5402e-03  1.1358e-02  9.4494e-01  6.3687e-03  1.0786e-02  3.8255e-03  0:07:40 1533
   468  6.5707e-03  2.5716e-03  1.1360e-02  9.7013e-01  6.5607e-03  1.0730e-02  3.8172e-03  0:06:08 1532
   469  6.8171e-03  2.6017e-03  1.1351e-02  9.9214e-01  6.8073e-03  1.0670e-02  3.8160e-03  0:04:54 1531
   470  7.1001e-03  2.6309e-03  1.1331e-02  1.0091e+00  7.0905e-03  1.0615e-02  3.8277e-03  0:03:55 1530
   471  7.4010e-03  2.6560e-03  1.1300e-02  1.0211e+00  7.3915e-03  1.0536e-02  3.8521e-03  0:03:08 1529
   472  7.6779e-03  2.6790e-03  1.1259e-02  1.0282e+00  7.6684e-03  1.0460e-02  3.8801e-03  0:07:36 1528
   473  7.9028e-03  2.6975e-03  1.1211e-02  1.0309e+00  7.8934e-03  1.0418e-02  3.9051e-03  0:06:04 1527

  iter  continuity  x-velocity  y-velocity  z-velocity      energy           k       omega     time/iter
   474  8.0671e-03  2.7093e-03  1.1153e-02  1.0299e+00  8.0577e-03  1.0385e-02  3.9321e-03  0:04:51 1526
   475  8.2140e-03  2.7167e-03  1.1083e-02  1.0242e+00  8.2046e-03  1.0340e-02  3.9456e-03  0:03:53 1525
   476  8.2982e-03  2.7153e-03  1.1001e-02  1.0138e+00  8.2886e-03  1.0302e-02  3.9479e-03  0:03:06 1524
   477  8.3458e-03  2.7038e-03  1.0911e-02  9.9942e-01  8.3359e-03  1.0286e-02  3.9549e-03  0:07:33 1523
   478  8.3691e-03  2.6838e-03  1.0814e-02  9.8228e-01  8.3589e-03  1.0268e-02  3.9627e-03  0:06:03 1522
   479  8.3672e-03  2.6585e-03  1.0712e-02  9.5961e-01  8.3566e-03  1.0256e-02  3.9621e-03  0:04:50 1521
   480  8.3167e-03  2.6319e-03  1.0606e-02  9.3254e-01  8.3057e-03  1.0247e-02  3.9646e-03  0:03:52 1520
   481  8.2235e-03  2.6022e-03  1.0500e-02  9.0169e-01  8.2122e-03  1.0205e-02  3.9676e-03  0:03:05 1519
   482  8.1235e-03  2.5687e-03  1.0394e-02  8.6752e-01  8.1120e-03  1.0175e-02  3.9648e-03  0:07:32 1518
   483  8.0462e-03  2.5351e-03  1.0297e-02  8.2974e-01  8.0346e-03  1.0148e-02  3.9676e-03  0:06:01 1517
   484  7.9714e-03  2.4937e-03  1.0210e-02  7.8936e-01  7.9596e-03  1.0134e-02  3.9529e-03  0:04:49 1516

  iter  continuity  x-velocity  y-velocity  z-velocity      energy           k       omega     time/iter
   485  7.9185e-03  2.4471e-03  1.0134e-02  7.4751e-01  7.9065e-03  1.0135e-02  3.9477e-03  0:03:51 1515
   486  7.9065e-03  2.3911e-03  1.0068e-02  7.0486e-01  7.8942e-03  1.0148e-02  3.9502e-03  0:03:05 1514
   487  7.9503e-03  2.3331e-03  1.0015e-02  6.6284e-01  7.9377e-03  1.0173e-02  3.9368e-03  0:07:30 1513
   488  8.0139e-03  2.2747e-03  9.9758e-03  6.2294e-01  8.0012e-03  1.0184e-02  3.9255e-03  0:06:00 1512
   489  8.0813e-03  2.2133e-03  9.9476e-03  5.8654e-01  8.0684e-03  1.0213e-02  3.9175e-03  0:04:48 1511
   490  8.1472e-03  2.1522e-03  9.9302e-03  5.5531e-01  8.1342e-03  1.0227e-02  3.9096e-03  0:03:50 1510
   491  8.2514e-03  2.0975e-03  9.9247e-03  5.2935e-01  8.2385e-03  1.0255e-02  3.8875e-03  0:03:04 1509
   492  8.3852e-03  2.0588e-03  9.9300e-03  5.1002e-01  8.3723e-03  1.0283e-02  3.8692e-03  0:07:29 1508
   493  8.5419e-03  2.0319e-03  9.9486e-03  4.9680e-01  8.5290e-03  1.0305e-02  3.8454e-03  0:05:59 1507
   494  8.6905e-03  2.0107e-03  9.9774e-03  4.9024e-01  8.6775e-03  1.0311e-02  3.8116e-03  0:04:47 1506
   495  8.8351e-03  1.9912e-03  1.0014e-02  4.9083e-01  8.8221e-03  1.0315e-02  3.7821e-03  0:03:49 1505

  iter  continuity  x-velocity  y-velocity  z-velocity      energy           k       omega     time/iter
   496  9.0112e-03  1.9715e-03  1.0061e-02  4.9681e-01  8.9981e-03  1.0316e-02  3.7637e-03  0:08:04 1504
   497  9.1876e-03  1.9518e-03  1.0117e-02  5.0828e-01  9.1744e-03  1.0337e-02  3.7443e-03  0:06:27 1503
   498  9.3384e-03  1.9313e-03  1.0180e-02  5.2424e-01  9.3250e-03  1.0371e-02  3.7220e-03  0:05:09 1502
   499  9.4448e-03  1.9141e-03  1.0247e-02  5.4256e-01  9.4314e-03  1.0392e-02  3.7145e-03  0:04:07 1501
   500  9.5408e-03  1.8960e-03  1.0321e-02  5.6320e-01  9.5273e-03  1.0398e-02  3.6916e-03  0:08:18 1500
   501  9.6403e-03  1.8757e-03  1.0399e-02  5.8552e-01  9.6267e-03  1.0411e-02  3.6701e-03  0:06:38 1499
   502  9.7448e-03  1.8574e-03  1.0479e-02  6.0738e-01  9.7313e-03  1.0433e-02  3.6489e-03  0:05:18 1498
   503  9.8083e-03  1.8481e-03  1.0564e-02  6.2589e-01  9.7947e-03  1.0450e-02  3.6386e-03  0:09:14 1497
   504  9.9067e-03  1.8553e-03  1.0654e-02  6.4197e-01  9.8932e-03  1.0471e-02  3.6194e-03  0:07:23 1496
   505  9.9523e-03  1.8715e-03  1.0742e-02  6.5660e-01  9.9388e-03  1.0479e-02  3.6038e-03  0:05:54 1495
   506  9.8841e-03  1.8896e-03  1.0834e-02  6.6922e-01  9.8705e-03  1.0486e-02  3.5903e-03  0:04:43 1494

  iter  continuity  x-velocity  y-velocity  z-velocity      energy           k       omega     time/iter
   507  9.8107e-03  1.9060e-03  1.0929e-02  6.8015e-01  9.7973e-03  1.0497e-02  3.5802e-03  0:03:46 1493
   508  9.7829e-03  1.9189e-03  1.1025e-02  6.8853e-01  9.7695e-03  1.0515e-02  3.5698e-03  0:07:59 1492
   509  9.6924e-03  1.9246e-03  1.1119e-02  6.9512e-01  9.6793e-03  1.0511e-02  3.5664e-03  0:06:23 1491
   510  9.6313e-03  1.9234e-03  1.1210e-02  7.0086e-01  9.6186e-03  1.0510e-02  3.5740e-03  0:05:06 1490
   511  9.6304e-03  1.9192e-03  1.1301e-02  7.0585e-01  9.6182e-03  1.0533e-02  3.5868e-03  0:04:05 1489
   512  9.5991e-03  1.9172e-03  1.1383e-02  7.0973e-01  9.5875e-03  1.0554e-02  3.5974e-03  0:03:16 1488
   513  9.5722e-03  1.9155e-03  1.1453e-02  7.1287e-01  9.5613e-03  1.0575e-02  3.6111e-03  0:07:34 1487
   514  9.5539e-03  1.9150e-03  1.1502e-02  7.1563e-01  9.5437e-03  1.0587e-02  3.6327e-03  0:06:03 1486
   515  9.5346e-03  1.9161e-03  1.1538e-02  7.1752e-01  9.5252e-03  1.0573e-02  3.6582e-03  0:04:50 1485
   516  9.4986e-03  1.9194e-03  1.1559e-02  7.1903e-01  9.4900e-03  1.0576e-02  3.6796e-03  0:03:52 1484
   517  9.4456e-03  1.9300e-03  1.1572e-02  7.2076e-01  9.4378e-03  1.0543e-02  3.6896e-03  0:08:02 1483

  iter  continuity  x-velocity  y-velocity  z-velocity      energy           k       omega     time/iter
   518  9.3818e-03  1.9467e-03  1.1576e-02  7.2219e-01  9.3748e-03  1.0523e-02  3.6999e-03  0:06:25 1482
   519  9.3341e-03  1.9629e-03  1.1573e-02  7.2359e-01  9.3279e-03  1.0530e-02  3.7093e-03  0:05:08 1481
   520  9.3220e-03  1.9769e-03  1.1566e-02  7.2498e-01  9.3164e-03  1.0550e-02  3.7254e-03  0:04:06 1480
   521  9.3313e-03  1.9935e-03  1.1550e-02  7.2586e-01  9.3260e-03  1.0576e-02  3.7338e-03  0:03:17 1479
   522  9.3349e-03  2.0089e-03  1.1527e-02  7.2604e-01  9.3300e-03  1.0587e-02  3.7373e-03  0:07:33 1478
   523  9.3441e-03  2.0288e-03  1.1491e-02  7.2642e-01  9.3394e-03  1.0595e-02  3.7663e-03  0:06:02 1477
   524  9.3846e-03  2.0496e-03  1.1445e-02  7.2605e-01  9.3799e-03  1.0602e-02  3.8004e-03  0:04:50 1476
   525  9.4577e-03  2.0697e-03  1.1393e-02  7.2528e-01  9.4528e-03  1.0620e-02  3.8350e-03  0:03:51 1475
   526  9.5538e-03  2.0922e-03  1.1330e-02  7.2339e-01  9.5487e-03  1.0602e-02  3.8636e-03  0:08:00 1474
   527  9.6662e-03  2.1163e-03  1.1265e-02  7.2004e-01  9.6606e-03  1.0586e-02  3.8918e-03  0:06:24 1473
   528  9.7810e-03  2.1368e-03  1.1195e-02  7.1598e-01  9.7750e-03  1.0605e-02  3.9181e-03  0:05:07 1472

  iter  continuity  x-velocity  y-velocity  z-velocity      energy           k       omega     time/iter
   529  9.8861e-03  2.1570e-03  1.1122e-02  7.1140e-01  9.8796e-03  1.0602e-02  3.9386e-03  0:04:05 1471
   530  1.0009e-02  2.1865e-03  1.1052e-02  7.0674e-01  1.0002e-02  1.0583e-02  3.9506e-03  0:08:10 1470
   531  1.0171e-02  2.2196e-03  1.0952e-02  7.0141e-01  1.0164e-02  1.0578e-02  3.9613e-03  0:06:32 1469
   532  1.0299e-02  2.2423e-03  1.0843e-02  6.9687e-01  1.0291e-02  1.0558e-02  3.9542e-03  0:05:13 1468
   533  1.0402e-02  2.2677e-03  1.0746e-02  6.9055e-01  1.0394e-02  1.0568e-02  3.9522e-03  0:04:10 1467
   534  1.0524e-02  2.3010e-03  1.0655e-02  6.8496e-01  1.0515e-02  1.0564e-02  3.9412e-03  0:03:20 1466
   535  1.0648e-02  2.3374e-03  1.0569e-02  6.7836e-01  1.0638e-02  1.0558e-02  3.9508e-03  0:07:33 1465
   536  1.0747e-02  2.3738e-03  1.0486e-02  6.7163e-01  1.0737e-02  1.0575e-02  3.9763e-03  0:06:02 1464
   537  1.0834e-02  2.4042e-03  1.0410e-02  6.6322e-01  1.0823e-02  1.0580e-02  4.0208e-03  0:04:50 1463
   538  1.0916e-02  2.4324e-03  1.0334e-02  6.5473e-01  1.0905e-02  1.0598e-02  4.0473e-03  0:03:51 1462
   539  1.0994e-02  2.4663e-03  1.0271e-02  6.4579e-01  1.0982e-02  1.0605e-02  4.0745e-03  0:07:57 1461

  iter  continuity  x-velocity  y-velocity  z-velocity      energy           k       omega     time/iter
   540  1.1021e-02  2.4974e-03  1.0204e-02  6.3466e-01  1.1009e-02  1.0611e-02  4.0924e-03  0:06:22 1460
   541  1.1017e-02  2.5261e-03  1.0133e-02  6.2364e-01  1.1005e-02  1.0636e-02  4.1002e-03  0:05:05 1459
   542  1.0999e-02  2.5541e-03  1.0072e-02  6.1099e-01  1.0986e-02  1.0642e-02  4.0947e-03  0:04:04 1458
   543  1.0980e-02  2.5825e-03  9.9993e-03  5.9708e-01  1.0967e-02  1.0639e-02  4.0823e-03  0:03:15 1457
   544  1.0968e-02  2.6096e-03  9.9388e-03  5.8478e-01  1.0954e-02  1.0628e-02  4.0690e-03  0:07:27 1456
   545  1.0976e-02  2.6360e-03  9.8816e-03  5.7214e-01  1.0963e-02  1.0632e-02  4.0618e-03  0:05:57 1455
   546  1.0988e-02  2.6592e-03  9.8247e-03  5.6058e-01  1.0974e-02  1.0637e-02  4.0660e-03  0:04:46 1454
   547  1.0972e-02  2.6816e-03  9.7882e-03  5.4720e-01  1.0959e-02  1.0646e-02  4.0833e-03  0:03:48 1453
   548  1.0912e-02  2.6943e-03  9.7726e-03  5.3334e-01  1.0898e-02  1.0678e-02  4.0924e-03  0:07:53 1452
   549  1.0875e-02  2.7087e-03  9.7695e-03  5.2200e-01  1.0861e-02  1.0727e-02  4.0948e-03  0:06:18 1451
   550  1.0829e-02  2.7209e-03  9.7967e-03  5.1128e-01  1.0816e-02  1.0751e-02  4.0882e-03  0:05:02 1450

  iter  continuity  x-velocity  y-velocity  z-velocity      energy           k       omega     time/iter
   551  1.0766e-02  2.7318e-03  9.8199e-03  5.0251e-01  1.0753e-02  1.0740e-02  4.0775e-03  0:04:02 1449
   552  1.0673e-02  2.7358e-03  9.8523e-03  4.9394e-01  1.0660e-02  1.0747e-02  4.0749e-03  0:08:03 1448
   553  1.0564e-02  2.7358e-03  9.8956e-03  4.8606e-01  1.0551e-02  1.0735e-02  4.0757e-03  0:06:26 1447
   554  1.0414e-02  2.7260e-03  9.9510e-03  4.7821e-01  1.0401e-02  1.0754e-02  4.0673e-03  0:05:09 1446
   555  1.0227e-02  2.7064e-03  1.0015e-02  4.7049e-01  1.0215e-02  1.0767e-02  4.0576e-03  0:04:07 1445
   556  1.0008e-02  2.6804e-03  1.0093e-02  4.6297e-01  9.9970e-03  1.0785e-02  4.0696e-03  0:08:06 1444
   557  9.7871e-03  2.6466e-03  1.0178e-02  4.5603e-01  9.7763e-03  1.0781e-02  4.0699e-03  0:06:29 1443
   558  9.5780e-03  2.6059e-03  1.0269e-02  4.4967e-01  9.5677e-03  1.0781e-02  4.0767e-03  0:05:11 1442
   559  9.3815e-03  2.5609e-03  1.0371e-02  4.4290e-01  9.3718e-03  1.0769e-02  4.0751e-03  0:04:08 1441
   560  9.1920e-03  2.5134e-03  1.0480e-02  4.3684e-01  9.1828e-03  1.0752e-02  4.0747e-03  0:08:07 1440
   561  9.0040e-03  2.4652e-03  1.0595e-02  4.3188e-01  8.9954e-03  1.0739e-02  4.0753e-03  0:06:29 1439

  iter  continuity  x-velocity  y-velocity  z-velocity      energy           k       omega     time/iter
   562  8.8267e-03  2.4178e-03  1.0709e-02  4.2736e-01  8.8185e-03  1.0728e-02  4.0843e-03  0:05:11 1438
   563  8.6694e-03  2.3690e-03  1.0815e-02  4.2280e-01  8.6618e-03  1.0705e-02  4.0934e-03  0:04:09 1437
   564  8.5298e-03  2.3306e-03  1.0910e-02  4.1901e-01  8.5227e-03  1.0706e-02  4.0993e-03  0:08:06 1436
   565  8.3816e-03  2.3028e-03  1.0989e-02  4.1479e-01  8.3749e-03  1.0706e-02  4.0963e-03  0:06:28 1435
   566  8.2181e-03  2.2841e-03  1.1039e-02  4.0946e-01  8.2116e-03  1.0688e-02  4.1024e-03  0:05:11 1434
   567  8.0516e-03  2.2733e-03  1.1069e-02  4.0416e-01  8.0453e-03  1.0641e-02  4.1014e-03  0:04:08 1433
   568  7.8995e-03  2.2759e-03  1.1082e-02  3.9918e-01  7.8932e-03  1.0601e-02  4.1050e-03  0:08:05 1432
   569  7.7549e-03  2.2901e-03  1.1092e-02  3.9605e-01  7.7484e-03  1.0560e-02  4.0932e-03  0:06:28 1431
   570  7.6392e-03  2.3127e-03  1.1100e-02  3.9450e-01  7.6326e-03  1.0538e-02  4.0886e-03  0:05:10 1430
   571  7.5428e-03  2.3473e-03  1.1108e-02  3.9469e-01  7.5358e-03  1.0489e-02  4.1152e-03  0:04:08 1429
   572  7.4798e-03  2.3903e-03  1.1109e-02  3.9647e-01  7.4726e-03  1.0437e-02  4.1319e-03  0:08:04 1428

  iter  continuity  x-velocity  y-velocity  z-velocity      energy           k       omega     time/iter
   573  7.4452e-03  2.4380e-03  1.1100e-02  3.9923e-01  7.4376e-03  1.0408e-02  4.1396e-03  0:06:27 1427
   574  7.4030e-03  2.4869e-03  1.1076e-02  4.0227e-01  7.3950e-03  1.0404e-02  4.1485e-03  0:05:09 1426
   575  7.3959e-03  2.5331e-03  1.1044e-02  4.0626e-01  7.3877e-03  1.0392e-02  4.1718e-03  0:04:07 1425
   576  7.3888e-03  2.5899e-03  1.0999e-02  4.0938e-01  7.3804e-03  1.0358e-02  4.1801e-03  0:08:02 1424
   577  7.3666e-03  2.6509e-03  1.0938e-02  4.1259e-01  7.3581e-03  1.0316e-02  4.1810e-03  0:06:26 1423
   578  7.3567e-03  2.7139e-03  1.0870e-02  4.1732e-01  7.3480e-03  1.0255e-02  4.1999e-03  0:05:08 1422
   579  7.3654e-03  2.7837e-03  1.0802e-02  4.2234e-01  7.3564e-03  1.0197e-02  4.1987e-03  0:04:06 1421
   580  7.3801e-03  2.8562e-03  1.0737e-02  4.2730e-01  7.3709e-03  1.0162e-02  4.1887e-03  0:08:01 1420
   581  7.4197e-03  2.9296e-03  1.0675e-02  4.3243e-01  7.4103e-03  1.0115e-02  4.2060e-03  0:06:25 1419
   582  7.4869e-03  3.0059e-03  1.0619e-02  4.3641e-01  7.4773e-03  1.0060e-02  4.2373e-03  0:05:07 1418
   583  7.5729e-03  3.0796e-03  1.0569e-02  4.3804e-01  7.5630e-03  1.0014e-02  4.2498e-03  0:04:06 1417

  iter  continuity  x-velocity  y-velocity  z-velocity      energy           k       omega     time/iter
   584  7.6439e-03  3.1444e-03  1.0518e-02  4.3898e-01  7.6339e-03  9.9895e-03  4.2538e-03  0:08:00 1416
   585  7.7022e-03  3.1939e-03  1.0470e-02  4.4065e-01  7.6922e-03  9.9583e-03  4.2723e-03  0:06:23 1415
   586  7.8118e-03  3.2376e-03  1.0433e-02  4.4134e-01  7.8018e-03  9.9338e-03  4.2578e-03  0:05:07 1414
   587  7.9492e-03  3.2773e-03  1.0410e-02  4.4249e-01  7.9394e-03  9.9090e-03  4.2416e-03  0:04:05 1413
   588  8.1087e-03  3.3160e-03  1.0396e-02  4.4468e-01  8.0991e-03  9.8756e-03  4.2117e-03  0:07:58 1412
   589  8.2792e-03  3.3466e-03  1.0388e-02  4.4571e-01  8.2696e-03  9.8536e-03  4.1791e-03  0:06:22 1411
   590  8.4629e-03  3.3684e-03  1.0383e-02  4.4537e-01  8.4533e-03  9.8187e-03  4.1569e-03  0:05:06 1410
   591  8.6382e-03  3.3787e-03  1.0381e-02  4.4518e-01  8.6286e-03  9.7729e-03  4.1498e-03  0:04:04 1409
   592  8.7976e-03  3.3762e-03  1.0381e-02  4.4572e-01  8.7880e-03  9.7411e-03  4.1241e-03  0:07:57 1408
   593  8.9655e-03  3.3656e-03  1.0388e-02  4.7229e-01  8.9559e-03  9.7114e-03  4.1113e-03  0:06:21 1407
   594  9.1318e-03  3.3514e-03  1.0400e-02  4.6545e-01  9.1222e-03  9.6795e-03  4.0865e-03  0:05:05 1406

  iter  continuity  x-velocity  y-velocity  z-velocity      energy           k       omega     time/iter
   595  9.3325e-03  3.3287e-03  1.0413e-02  4.6043e-01  9.3228e-03  9.6292e-03  4.0635e-03  0:04:04 1405
   596  9.6175e-03  3.2962e-03  1.0432e-02  4.5842e-01  9.6077e-03  9.6260e-03  4.0406e-03  0:03:15 1404
   597  9.9238e-03  3.2541e-03  1.0455e-02  4.5809e-01  9.9138e-03  9.6191e-03  4.0073e-03  0:07:16 1403
   598  1.0262e-02  3.2040e-03  1.0478e-02  4.5853e-01  1.0251e-02  9.6009e-03  3.9711e-03  0:05:49 1402
   599  1.0648e-02  3.1533e-03  1.0496e-02  4.6048e-01  1.0638e-02  9.5771e-03  3.9516e-03  0:04:39 1401
   600  1.1026e-02  3.1029e-03  1.0508e-02  4.6269e-01  1.1015e-02  9.5448e-03  3.9243e-03  0:03:43 1400
   601  1.1427e-02  3.0524e-03  1.0512e-02  4.6581e-01  1.1416e-02  9.5238e-03  3.8954e-03  0:07:38 1399
   602  1.1783e-02  3.0035e-03  1.0515e-02  4.6873e-01  1.1772e-02  9.4797e-03  3.8704e-03  0:06:06 1398
   603  1.2121e-02  2.9532e-03  1.0518e-02  4.7108e-01  1.2110e-02  9.4548e-03  3.8242e-03  0:04:53 1397
   604  1.2421e-02  2.9045e-03  1.0525e-02  4.7382e-01  1.2410e-02  9.4294e-03  3.7842e-03  0:03:54 1396
   605  1.2688e-02  2.8609e-03  1.0533e-02  4.7726e-01  1.2676e-02  9.4056e-03  3.7482e-03  0:07:46 1395

  iter  continuity  x-velocity  y-velocity  z-velocity      energy           k       omega     time/iter
   606  1.2904e-02  2.8218e-03  1.0550e-02  4.8179e-01  1.2892e-02  9.3793e-03  3.7118e-03  0:06:13 1394
   607  1.3048e-02  2.7862e-03  1.0577e-02  4.8879e-01  1.3036e-02  9.3563e-03  3.6727e-03  0:04:58 1393
   608  1.3121e-02  2.7539e-03  1.0611e-02  4.9807e-01  1.3109e-02  9.3243e-03  3.6552e-03  0:03:58 1392
   609  1.3137e-02  2.7210e-03  1.0649e-02  5.0894e-01  1.3124e-02  9.2880e-03  3.6198e-03  0:07:49 1391
   610  1.3123e-02  2.6890e-03  1.0691e-02  5.2226e-01  1.3110e-02  9.2573e-03  3.5931e-03  0:06:15 1390
   611  1.3046e-02  2.6599e-03  1.0733e-02  5.3829e-01  1.3033e-02  9.2219e-03  3.5636e-03  0:04:59 1389
   612  1.2918e-02  2.6288e-03  1.0777e-02  5.5624e-01  1.2905e-02  9.2005e-03  3.5310e-03  0:03:59 1388
   613  1.2752e-02  2.5938e-03  1.0822e-02  5.7613e-01  1.2739e-02  9.1700e-03  3.4976e-03  0:07:49 1387
   614  1.2579e-02  2.5505e-03  1.0866e-02  5.9765e-01  1.2566e-02  9.1386e-03  3.4554e-03  0:06:15 1386
   615  1.2380e-02  2.5006e-03  1.0911e-02  6.1987e-01  1.2367e-02  9.1072e-03  3.4091e-03  0:05:00 1385
   616  1.2167e-02  2.4436e-03  1.0958e-02  6.4347e-01  1.2154e-02  9.0647e-03  3.3737e-03  0:03:59 1384

  iter  continuity  x-velocity  y-velocity  z-velocity      energy           k       omega     time/iter
   617  1.1935e-02  2.3805e-03  1.1010e-02  6.6839e-01  1.1922e-02  9.0167e-03  3.3429e-03  0:07:48 1383
   618  1.1725e-02  2.3145e-03  1.1063e-02  6.9303e-01  1.1712e-02  8.9573e-03  3.3057e-03  0:06:14 1382
   619  1.1530e-02  2.2469e-03  1.1120e-02  7.1740e-01  1.1518e-02  8.9065e-03  3.2707e-03  0:04:59 1381
   620  1.1356e-02  2.1741e-03  1.1179e-02  7.4208e-01  1.1343e-02  8.8489e-03  3.2377e-03  0:03:59 1380
   621  1.1233e-02  2.1129e-03  1.1233e-02  7.6693e-01  1.1221e-02  8.7997e-03  3.2182e-03  0:07:47 1379
   622  1.1083e-02  2.0596e-03  1.1281e-02  7.9114e-01  1.1070e-02  8.7419e-03  3.1958e-03  0:06:13 1378
   623  1.0911e-02  2.0157e-03  1.1319e-02  8.1472e-01  1.0899e-02  8.6905e-03  3.1703e-03  0:04:58 1377
   624  1.0724e-02  1.9792e-03  1.1349e-02  8.3613e-01  1.0712e-02  8.6375e-03  3.1371e-03  0:03:59 1376
   625  1.0541e-02  1.9529e-03  1.1371e-02  8.5529e-01  1.0529e-02  8.5785e-03  3.1111e-03  0:07:46 1375
   626  1.0357e-02  1.9412e-03  1.1390e-02  8.7189e-01  1.0346e-02  8.5196e-03  3.0969e-03  0:06:12 1374
[...]
  1838  9.4279e-03  2.2960e-03  9.7722e-03  5.1859e-01  9.4161e-03  5.5811e-03  2.6768e-03  0:00:59  162
  1839  9.6124e-03  2.2577e-03  9.8427e-03  5.2223e-01  9.6004e-03  5.5827e-03  2.6585e-03  0:00:47  161
  1840  9.7609e-03  2.2185e-03  9.9213e-03  5.2577e-01  9.7486e-03  5.5672e-03  2.6445e-03  0:00:37  160
  1841  9.9276e-03  2.1832e-03  9.9992e-03  5.2934e-01  9.9153e-03  5.5576e-03  2.6225e-03  0:01:02  159
  1842  1.0051e-02  2.1552e-03  1.0073e-02  5.3282e-01  1.0039e-02  5.5391e-03  2.5921e-03  0:00:49  158
  1843  1.0177e-02  2.1364e-03  1.0143e-02  5.3553e-01  1.0165e-02  5.5204e-03  2.5674e-03  0:00:39  157
  1844  1.0301e-02  2.1229e-03  1.0209e-02  5.3775e-01  1.0289e-02  5.5063e-03  2.5405e-03  0:01:02  156
  1845  1.0356e-02  2.1093e-03  1.0278e-02  5.3947e-01  1.0344e-02  5.4938e-03  2.5119e-03  0:00:49  155
  1846  1.0405e-02  2.0910e-03  1.0351e-02  5.4032e-01  1.0393e-02  5.4773e-03  2.4870e-03  0:00:39  154
  1847  1.0408e-02  2.0685e-03  1.0425e-02  5.4063e-01  1.0396e-02  5.4699e-03  2.4600e-03  0:00:31  153
  1848  1.0380e-02  2.0425e-03  1.0502e-02  5.3976e-01  1.0367e-02  5.4739e-03  2.4313e-03  0:00:55  152

  iter  continuity  x-velocity  y-velocity  z-velocity      energy           k       omega     time/iter
  1849  1.0317e-02  2.0146e-03  1.0579e-02  5.3814e-01  1.0305e-02  5.4738e-03  2.4049e-03  0:00:44  151
  1850  1.0171e-02  1.9872e-03  1.0662e-02  5.3530e-01  1.0159e-02  5.4674e-03  2.3868e-03  0:00:35  150
  1851  1.0001e-02  1.9606e-03  1.0744e-02  5.3158e-01  9.9882e-03  5.4602e-03  2.3746e-03  0:00:58  149
  1852  9.7571e-03  1.9321e-03  1.0822e-02  5.2730e-01  9.7447e-03  5.4471e-03  2.3575e-03  0:00:46  148
  1853  9.5272e-03  1.9113e-03  1.0899e-02  5.2315e-01  9.5150e-03  5.4333e-03  2.3427e-03  0:00:36  147
  1854  9.2473e-03  1.9011e-03  1.0962e-02  5.1882e-01  9.2355e-03  5.4207e-03  2.3354e-03  0:00:58  146
  1855  8.9731e-03  1.8976e-03  1.1012e-02  5.1519e-01  8.9617e-03  5.4150e-03  2.3259e-03  0:00:46  145
  1856  8.7100e-03  1.8972e-03  1.1051e-02  5.1180e-01  8.6991e-03  5.4075e-03  2.3287e-03  0:00:37  144
  1857  8.4688e-03  1.8965e-03  1.1082e-02  5.0922e-01  8.4582e-03  5.3907e-03  2.3362e-03  0:00:58  143
  1858  8.2506e-03  1.8951e-03  1.1104e-02  5.0692e-01  8.2405e-03  5.3709e-03  2.3402e-03  0:00:46  142
  1859  8.0368e-03  1.8946e-03  1.1120e-02  5.0461e-01  8.0271e-03  5.3540e-03  2.3441e-03  0:00:36  141

  iter  continuity  x-velocity  y-velocity  z-velocity      energy           k       omega     time/iter
  1860  7.8115e-03  1.9013e-03  1.1133e-02  5.0141e-01  7.8021e-03  5.3346e-03  2.3543e-03  0:00:29  140
  1861  7.5686e-03  1.9083e-03  1.1144e-02  4.9715e-01  7.5598e-03  5.3179e-03  2.3744e-03  0:00:51  139
  1862  7.3514e-03  1.9197e-03  1.1149e-02  4.9295e-01  7.3430e-03  5.3187e-03  2.3835e-03  0:00:40  138
  1863  7.1650e-03  1.9385e-03  1.1145e-02  4.8842e-01  7.1571e-03  5.3178e-03  2.3991e-03  0:00:59  137
  1864  7.0021e-03  1.9666e-03  1.1133e-02  4.8427e-01  6.9946e-03  5.3185e-03  2.4197e-03  0:00:47  136
  1865  6.8817e-03  2.0045e-03  1.1114e-02  4.8174e-01  6.8746e-03  5.3311e-03  2.4321e-03  0:00:37  135
  1866  6.8147e-03  2.0453e-03  1.1087e-02  4.8154e-01  6.8078e-03  5.3288e-03  2.4453e-03  0:00:30  134
  1867  6.8127e-03  2.0886e-03  1.1047e-02  4.8083e-01  6.8059e-03  5.3205e-03  2.4613e-03  0:00:50  133
  1868  6.8551e-03  2.1241e-03  1.1009e-02  4.8132e-01  6.8483e-03  5.3143e-03  2.4788e-03  0:00:40  132
  1869  6.9158e-03  2.1594e-03  1.0969e-02  4.8249e-01  6.9088e-03  5.3059e-03  2.4972e-03  0:00:32  131
  1870  7.0564e-03  2.1947e-03  1.0923e-02  4.8425e-01  7.0493e-03  5.2924e-03  2.5153e-03  0:00:51  130

  iter  continuity  x-velocity  y-velocity  z-velocity      energy           k       omega     time/iter
  1871  7.2338e-03  2.2250e-03  1.0880e-02  4.8683e-01  7.2265e-03  5.2885e-03  2.5305e-03  0:00:41  129
  1872  7.3835e-03  2.2568e-03  1.0835e-02  4.9262e-01  7.3758e-03  5.2870e-03  2.5417e-03  0:00:32  128
  1873  7.5115e-03  2.2910e-03  1.0783e-02  4.9911e-01  7.5037e-03  5.3009e-03  2.5365e-03  0:00:51  127
  1874  7.6949e-03  2.3253e-03  1.0726e-02  5.1167e-01  7.6867e-03  5.3058e-03  2.5416e-03  0:00:40  126
  1875  7.8951e-03  2.3578e-03  1.0661e-02  5.2466e-01  7.8866e-03  5.3164e-03  2.5448e-03  0:00:32  125
  1876  8.0601e-03  2.3898e-03  1.0584e-02  5.3775e-01  8.0511e-03  5.3229e-03  2.5638e-03  0:00:50  124
  1877  8.1969e-03  2.4190e-03  1.0503e-02  5.5352e-01  8.1874e-03  5.3193e-03  2.5801e-03  0:00:40  123
  1878  8.3056e-03  2.4364e-03  1.0372e-02  5.6769e-01  8.2957e-03  5.3212e-03  2.5886e-03  0:00:32  122
  1879  8.4130e-03  2.4571e-03  1.0280e-02  5.8510e-01  8.4026e-03  5.3234e-03  2.5977e-03  0:00:25  121
  1880  8.5026e-03  2.4733e-03  1.0185e-02  5.9953e-01  8.4917e-03  5.3183e-03  2.6046e-03  0:00:44  120
  1881  8.6099e-03  2.4839e-03  1.0099e-02  6.1244e-01  8.5987e-03  5.3296e-03  2.6033e-03  0:00:35  119

  iter  continuity  x-velocity  y-velocity  z-velocity      energy           k       omega     time/iter
  1882  8.7746e-03  2.5026e-03  1.0018e-02  6.2517e-01  8.7630e-03  5.3642e-03  2.6128e-03  0:00:28  118
  1883  8.9201e-03  2.5211e-03  9.9264e-03  6.3538e-01  8.9082e-03  5.3931e-03  2.6128e-03  0:00:45  117
  1884  9.0607e-03  2.5391e-03  9.8494e-03  6.4436e-01  9.0486e-03  5.4117e-03  2.6231e-03  0:00:36  116
  1885  9.1965e-03  2.5506e-03  9.7494e-03  6.5520e-01  9.1842e-03  5.4344e-03  2.6371e-03  0:00:29  115
  1886  9.3225e-03  2.5525e-03  9.6545e-03  6.6709e-01  9.3099e-03  5.4469e-03  2.6495e-03  0:00:45  114
  1887  9.4495e-03  2.5489e-03  9.5663e-03  6.7469e-01  9.4369e-03  5.4508e-03  2.6675e-03  0:00:36  113
  1888  9.5529e-03  2.5467e-03  9.4803e-03  6.8258e-01  9.5401e-03  5.4613e-03  2.6722e-03  0:00:29  112
  1889  9.6652e-03  2.5389e-03  9.4079e-03  6.9011e-01  9.6523e-03  5.4680e-03  2.6742e-03  0:00:45  111
  1890  9.7762e-03  2.5320e-03  9.3364e-03  6.9748e-01  9.7632e-03  5.4960e-03  2.6696e-03  0:00:36  110
  1891  9.8548e-03  2.5277e-03  9.2706e-03  7.0288e-01  9.8417e-03  5.5139e-03  2.6619e-03  0:00:28  109
  1892  9.8834e-03  2.5234e-03  9.2170e-03  7.0598e-01  9.8704e-03  5.5424e-03  2.6617e-03  0:00:22  108

  iter  continuity  x-velocity  y-velocity  z-velocity      energy           k       omega     time/iter
  1893  9.8966e-03  2.5198e-03  9.1805e-03  7.0707e-01  9.8836e-03  5.5719e-03  2.6663e-03  0:00:39  107
  1894  9.8988e-03  2.5172e-03  9.1547e-03  7.0748e-01  9.8859e-03  5.5991e-03  2.6660e-03  0:00:31  106
  1895  9.8824e-03  2.5119e-03  9.1420e-03  7.0803e-01  9.8697e-03  5.6242e-03  2.6689e-03  0:00:25  105
  1896  9.8456e-03  2.5045e-03  9.1346e-03  7.0830e-01  9.8332e-03  5.6456e-03  2.6634e-03  0:00:40  104
  1897  9.7746e-03  2.4971e-03  9.1346e-03  7.0691e-01  9.7625e-03  5.6595e-03  2.6539e-03  0:00:32  103
  1898  9.6443e-03  2.4873e-03  9.1452e-03  7.0486e-01  9.6325e-03  5.6864e-03  2.6507e-03  0:00:25  102
  1899  9.4700e-03  2.4712e-03  9.1732e-03  7.0017e-01  9.4585e-03  5.7050e-03  2.6574e-03  0:00:40  101
  1900  9.2416e-03  2.4444e-03  9.2057e-03  6.9443e-01  9.2305e-03  5.7231e-03  2.6622e-03  0:00:32  100
  1901  9.0157e-03  2.4124e-03  9.2543e-03  6.8883e-01  9.0050e-03  5.7388e-03  2.6577e-03  0:00:25   99
  1902  8.8049e-03  2.3770e-03  9.3115e-03  6.8354e-01  8.7945e-03  5.7560e-03  2.6464e-03  0:00:40   98
  1903  8.5876e-03  2.3408e-03  9.3722e-03  6.7886e-01  8.5775e-03  5.7657e-03  2.6306e-03  0:00:31   97

  iter  continuity  x-velocity  y-velocity  z-velocity      energy           k       omega     time/iter
  1904  8.3534e-03  2.3042e-03  9.4403e-03  6.7188e-01  8.3436e-03  5.7792e-03  2.6248e-03  0:00:25   96
  1905  8.1047e-03  2.2661e-03  9.5186e-03  6.6390e-01  8.0951e-03  5.7963e-03  2.6358e-03  0:00:20   95
  1906  7.8500e-03  2.2263e-03  9.5994e-03  6.5710e-01  7.8408e-03  5.8150e-03  2.6513e-03  0:00:34   94
  1907  7.6077e-03  2.1950e-03  9.6809e-03  6.5121e-01  7.5989e-03  5.8278e-03  2.6597e-03  0:00:27   93
  1908  7.3669e-03  2.1703e-03  9.7514e-03  6.4294e-01  7.3583e-03  5.8260e-03  2.6689e-03  0:00:22   92
  1909  7.1341e-03  2.1490e-03  9.8071e-03  6.3449e-01  7.1258e-03  5.8411e-03  2.6719e-03  0:00:35   91
  1910  6.9159e-03  2.1312e-03  9.8441e-03  6.2650e-01  6.9077e-03  5.8475e-03  2.6676e-03  0:00:28   90
  1911  6.7228e-03  2.1203e-03  9.8637e-03  6.1865e-01  6.7146e-03  5.8439e-03  2.6615e-03  0:00:22   89
  1912  6.5731e-03  2.1122e-03  9.8728e-03  6.1289e-01  6.5648e-03  5.8366e-03  2.6799e-03  0:00:35   88
  1913  6.4410e-03  2.1097e-03  9.8806e-03  6.0921e-01  6.4326e-03  5.8146e-03  2.6905e-03  0:00:28   87
  1914  6.3272e-03  2.1161e-03  9.8942e-03  6.0800e-01  6.3186e-03  5.8054e-03  2.7081e-03  0:00:22   86

  iter  continuity  x-velocity  y-velocity  z-velocity      energy           k       omega     time/iter
  1915  6.2418e-03  2.1328e-03  9.9098e-03  6.0991e-01  6.2329e-03  5.8107e-03  2.7244e-03  0:00:34   85
  1916  6.1903e-03  2.1553e-03  9.9248e-03  6.1387e-01  6.1812e-03  5.8116e-03  2.7581e-03  0:00:27   84
  1917  6.1734e-03  2.1754e-03  9.9383e-03  6.1639e-01  6.1640e-03  5.8077e-03  2.7862e-03  0:00:21   83
  1918  6.2034e-03  2.2002e-03  9.9455e-03  6.1992e-01  6.1940e-03  5.8045e-03  2.7996e-03  0:00:17   82
  1919  6.2245e-03  2.2358e-03  9.9421e-03  6.2449e-01  6.2152e-03  5.8009e-03  2.8141e-03  0:00:30   81
  1920  6.2485e-03  2.2773e-03  9.9221e-03  6.2996e-01  6.2392e-03  5.7949e-03  2.8362e-03  0:00:23   80
  1921  6.2806e-03  2.3168e-03  9.8868e-03  6.3707e-01  6.2714e-03  5.7952e-03  2.8343e-03  0:00:18   79
  1922  6.3371e-03  2.3595e-03  9.8437e-03  6.4314e-01  6.3278e-03  5.7895e-03  2.8360e-03  0:00:30   78
  1923  6.4092e-03  2.4060e-03  9.8041e-03  6.4903e-01  6.3999e-03  5.7784e-03  2.8508e-03  0:00:24   77
  1924  6.4927e-03  2.4559e-03  9.7688e-03  6.5543e-01  6.4832e-03  5.7737e-03  2.8877e-03  0:00:19   76
  1925  6.5836e-03  2.5092e-03  9.7405e-03  6.6011e-01  6.5741e-03  5.7699e-03  2.9078e-03  0:00:30   75

  iter  continuity  x-velocity  y-velocity  z-velocity      energy           k       omega     time/iter
  1926  6.6850e-03  2.5616e-03  9.7168e-03  6.6366e-01  6.6754e-03  5.7613e-03  2.9226e-03  0:00:24   74
  1927  6.7648e-03  2.6100e-03  9.6949e-03  6.6801e-01  6.7551e-03  5.7465e-03  2.9499e-03  0:00:19   73
  1928  6.8175e-03  2.6526e-03  9.6718e-03  6.7308e-01  6.8078e-03  5.7384e-03  2.9734e-03  0:00:15   72
  1929  6.9054e-03  2.6900e-03  9.6485e-03  6.7669e-01  6.8957e-03  5.7305e-03  2.9882e-03  0:00:26   71
  1930  6.9998e-03  2.7243e-03  9.6268e-03  6.7636e-01  6.9901e-03  5.7271e-03  2.9845e-03  0:00:20   70
  1931  7.1015e-03  2.7549e-03  9.6059e-03  6.7580e-01  7.0918e-03  5.7331e-03  2.9772e-03  0:00:16   69
  1932  7.2227e-03  2.7803e-03  9.5891e-03  6.7571e-01  7.2130e-03  5.7418e-03  2.9722e-03  0:00:26   68
  1933  7.3585e-03  2.7946e-03  9.5716e-03  6.7503e-01  7.3487e-03  5.7333e-03  2.9718e-03  0:00:21   67
  1934  7.4930e-03  2.7977e-03  9.5511e-03  6.7447e-01  7.4831e-03  5.7243e-03  2.9604e-03  0:00:16   66
  1935  7.6001e-03  2.7909e-03  9.5284e-03  6.7496e-01  7.5902e-03  5.7138e-03  2.9375e-03  0:00:26   65
  1936  7.6872e-03  2.7721e-03  9.5110e-03  6.9278e-01  7.6773e-03  5.7017e-03  2.9354e-03  0:00:20   64

  iter  continuity  x-velocity  y-velocity  z-velocity      energy           k       omega     time/iter
  1937  7.7875e-03  2.7448e-03  9.5026e-03  6.9577e-01  7.7776e-03  5.6807e-03  2.9284e-03  0:00:16   63
  1938  7.8835e-03  2.7116e-03  9.4978e-03  6.8765e-01  7.8735e-03  5.6623e-03  2.9136e-03  0:00:25   62
  1939  7.9894e-03  2.6730e-03  9.4968e-03  6.8586e-01  7.9793e-03  5.6623e-03  2.9137e-03  0:00:20   61
  1940  8.1122e-03  2.6335e-03  9.5030e-03  6.8335e-01  8.1020e-03  5.6636e-03  2.8933e-03  0:00:15   60
  1941  8.2563e-03  2.5914e-03  9.5194e-03  6.7882e-01  8.2458e-03  5.6628e-03  2.8800e-03  0:00:24   59
  1942  8.4103e-03  2.5506e-03  9.5395e-03  6.7575e-01  8.3996e-03  5.6633e-03  2.8724e-03  0:00:19   58
  1943  8.5573e-03  2.5179e-03  9.5588e-03  6.7768e-01  8.5463e-03  5.6667e-03  2.8673e-03  0:00:15   57
  1944  8.6904e-03  2.4905e-03  9.5779e-03  6.7936e-01  8.6793e-03  5.6615e-03  2.8424e-03  0:00:12   56
  1945  8.8005e-03  2.4637e-03  9.5944e-03  6.8282e-01  8.7893e-03  5.6655e-03  2.8248e-03  0:00:20   55
  1946  8.9014e-03  2.4393e-03  9.6142e-03  6.8422e-01  8.8901e-03  5.6500e-03  2.8038e-03  0:00:16   54
  1947  9.0000e-03  2.4119e-03  9.6419e-03  6.8434e-01  8.9886e-03  5.6385e-03  2.7701e-03  0:00:12   53

  iter  continuity  x-velocity  y-velocity  z-velocity      energy           k       omega     time/iter
  1948  9.1447e-03  2.3816e-03  9.6792e-03  6.8397e-01  9.1332e-03  5.6416e-03  2.7469e-03  0:00:20   52
  1949  9.3113e-03  2.3489e-03  9.7260e-03  6.8408e-01  9.2996e-03  5.6505e-03  2.7253e-03  0:00:16   51
  1950  9.5130e-03  2.3126e-03  9.7829e-03  6.8561e-01  9.5011e-03  5.6456e-03  2.6971e-03  0:00:12   50
  1951  9.6942e-03  2.2744e-03  9.8521e-03  6.8712e-01  9.6821e-03  5.6387e-03  2.6781e-03  0:00:20   49
  1952  9.8402e-03  2.2377e-03  9.9294e-03  6.8869e-01  9.8279e-03  5.6255e-03  2.6631e-03  0:00:15   48
  1953  1.0008e-02  2.2007e-03  1.0006e-02  6.9017e-01  9.9956e-03  5.6170e-03  2.6418e-03  0:00:12   47
  1954  1.0136e-02  2.1714e-03  1.0078e-02  6.9137e-01  1.0123e-02  5.5956e-03  2.6129e-03  0:00:19   46
  1955  1.0279e-02  2.1515e-03  1.0147e-02  6.9292e-01  1.0267e-02  5.5729e-03  2.5859e-03  0:00:15   45
  1956  1.0368e-02  2.1366e-03  1.0212e-02  6.9289e-01  1.0356e-02  5.5657e-03  2.5580e-03  0:00:11   44
  1957  1.0459e-02  2.1206e-03  1.0279e-02  6.9316e-01  1.0447e-02  5.5532e-03  2.5278e-03  0:00:09   43
  1958  1.0483e-02  2.1001e-03  1.0349e-02  6.9103e-01  1.0470e-02  5.5343e-03  2.5043e-03  0:00:15   42

  iter  continuity  x-velocity  y-velocity  z-velocity      energy           k       omega     time/iter
  1959  1.0491e-02  2.0752e-03  1.0423e-02  6.8932e-01  1.0478e-02  5.5206e-03  2.4728e-03  0:00:12   41
  1960  1.0442e-02  2.0469e-03  1.0497e-02  6.8628e-01  1.0429e-02  5.5187e-03  2.4428e-03  0:00:09   40
  1961  1.0391e-02  2.0170e-03  1.0575e-02  6.8323e-01  1.0378e-02  5.5104e-03  2.4177e-03  0:00:15   39
  1962  1.0253e-02  1.9877e-03  1.0656e-02  6.7892e-01  1.0241e-02  5.5007e-03  2.4031e-03  0:00:12   38
  1963  1.0055e-02  1.9586e-03  1.0737e-02  6.7396e-01  1.0042e-02  5.4922e-03  2.3867e-03  0:00:09   37
  1964  9.8395e-03  1.9281e-03  1.0814e-02  6.6751e-01  9.8272e-03  5.4727e-03  2.3674e-03  0:00:14   36
  1965  9.5773e-03  1.9063e-03  1.0889e-02  6.6185e-01  9.5651e-03  5.4541e-03  2.3511e-03  0:00:11   35
  1966  9.3130e-03  1.8959e-03  1.0950e-02  6.5629e-01  9.3012e-03  5.4339e-03  2.3437e-03  0:00:09   34
  1967  9.0275e-03  1.8919e-03  1.0999e-02  6.5198e-01  9.0161e-03  5.4205e-03  2.3340e-03  0:00:07   33
  1968  8.7498e-03  1.8914e-03  1.1037e-02  6.4892e-01  8.7388e-03  5.4043e-03  2.3354e-03  0:00:12   32
  1969  8.4989e-03  1.8908e-03  1.1067e-02  6.4675e-01  8.4883e-03  5.3831e-03  2.3375e-03  0:00:09   31

  iter  continuity  x-velocity  y-velocity  z-velocity      energy           k       omega     time/iter
  1970  8.2658e-03  1.8913e-03  1.1088e-02  6.4517e-01  8.2556e-03  5.3576e-03  2.3403e-03  0:00:07   30
  1971  8.0388e-03  1.8923e-03  1.1104e-02  6.4451e-01  8.0290e-03  5.3384e-03  2.3462e-03  0:00:11   29
  1972  7.8127e-03  1.8995e-03  1.1116e-02  6.4223e-01  7.8033e-03  5.3153e-03  2.3579e-03  0:00:09   28
  1973  7.5667e-03  1.9069e-03  1.1128e-02  6.3926e-01  7.5577e-03  5.3015e-03  2.3731e-03  0:00:07   27
  1974  7.3473e-03  1.9194e-03  1.1132e-02  6.3620e-01  7.3388e-03  5.2975e-03  2.3799e-03  0:00:10   26
  1975  7.1586e-03  1.9397e-03  1.1127e-02  6.3213e-01  7.1505e-03  5.2907e-03  2.3969e-03  0:00:08   25
  1976  6.9952e-03  1.9692e-03  1.1115e-02  6.2878e-01  6.9876e-03  5.2855e-03  2.4176e-03  0:00:06   24
  1977  6.8714e-03  2.0086e-03  1.1095e-02  6.2673e-01  6.8642e-03  5.2884e-03  2.4283e-03  0:00:05   23
  1978  6.8054e-03  2.0508e-03  1.1068e-02  6.2680e-01  6.7984e-03  5.2835e-03  2.4409e-03  0:00:08   22
  1979  6.7981e-03  2.0952e-03  1.1027e-02  6.2528e-01  6.7912e-03  5.2773e-03  2.4533e-03  0:00:06   21
  1980  6.8301e-03  2.1338e-03  1.0987e-02  6.2596e-01  6.8232e-03  5.2649e-03  2.4664e-03  0:00:05   20

  iter  continuity  x-velocity  y-velocity  z-velocity      energy           k       omega     time/iter
  1981  6.8876e-03  2.1690e-03  1.0948e-02  6.2740e-01  6.8806e-03  5.2504e-03  2.4865e-03  0:00:07   19
  1982  7.0227e-03  2.2043e-03  1.0902e-02  6.2890e-01  7.0156e-03  5.2367e-03  2.5029e-03  0:00:06   18
  1983  7.1943e-03  2.2347e-03  1.0860e-02  6.3256e-01  7.1869e-03  5.2304e-03  2.5186e-03  0:00:04   17
  1984  7.3317e-03  2.2664e-03  1.0814e-02  6.3972e-01  7.3240e-03  5.2327e-03  2.5268e-03  0:00:06   16
  1985  7.4556e-03  2.3000e-03  1.0761e-02  6.4716e-01  7.4477e-03  5.2375e-03  2.5229e-03  0:00:05   15
  1986  7.6396e-03  2.3335e-03  1.0703e-02  6.6096e-01  7.6313e-03  5.2467e-03  2.5282e-03  0:00:04   14
  1987  7.8370e-03  2.3650e-03  1.0637e-02  6.7503e-01  7.8284e-03  5.2524e-03  2.5281e-03  0:00:05   13
  1988  8.0004e-03  2.3956e-03  1.0560e-02  6.8691e-01  7.9913e-03  5.2633e-03  2.5472e-03  0:00:04   12
  1989  8.1329e-03  2.4232e-03  1.0476e-02  7.0134e-01  8.1234e-03  5.2577e-03  2.5643e-03  0:00:03   11
  1990  8.2371e-03  2.4394e-03  1.0346e-02  7.1220e-01  8.2271e-03  5.2558e-03  2.5754e-03  0:00:02   10
  1991  8.3468e-03  2.4591e-03  1.0254e-02  7.2464e-01  8.3364e-03  5.2532e-03  2.5835e-03  0:00:03    9

  iter  continuity  x-velocity  y-velocity  z-velocity      energy           k       omega     time/iter
  1992  8.4365e-03  2.4730e-03  1.0158e-02  7.3839e-01  8.4256e-03  5.2533e-03  2.5893e-03  0:00:02    8
  1993  8.5483e-03  2.4831e-03  1.0074e-02  7.4948e-01  8.5371e-03  5.2677e-03  2.5857e-03  0:00:02    7
  1994  8.7163e-03  2.5011e-03  9.9896e-03  7.5822e-01  8.7047e-03  5.2938e-03  2.5946e-03  0:00:02    6
  1995  8.8674e-03  2.5188e-03  9.8974e-03  7.6693e-01  8.8555e-03  5.3167e-03  2.5913e-03  0:00:02    5
  1996  9.0162e-03  2.5357e-03  9.8188e-03  7.7488e-01  9.0041e-03  5.3321e-03  2.6014e-03  0:00:02    4
  1997  9.1534e-03  2.5453e-03  9.7171e-03  7.8485e-01  9.1410e-03  5.3562e-03  2.6140e-03  0:00:01    3
  1998  9.2813e-03  2.5455e-03  9.6229e-03  7.9571e-01  9.2687e-03  5.3664e-03  2.6268e-03  0:00:01    2
  1999  9.4072e-03  2.5406e-03  9.5348e-03  7.9925e-01  9.3945e-03  5.3705e-03  2.6442e-03  0:00:00    1
  2000  9.5145e-03  2.5387e-03  9.4497e-03  8.0460e-01  9.5017e-03  5.3788e-03  2.6490e-03  0:00:00    0

> 
adjoint/                parallel/               server/
define/                 parametric-study/       solve/
display/                plot/                   surface/
exit                    preferences/            turbo-workflow/
file/                   print-license-usage     views/
mesh/                   report/

> /file/write-case-data project1
Fast-loading "C:\PROGRA~1\ANSYSI~1\v231\fluent\fluent23.1.0\\addons\afd\lib\hdfio.bin"
Done.

Writing to Engs-30669:"C:\Users\kebl7595\Desktop\CFD\Runs\Flap\0 degrees\project1.cas.h5" in NODE0 mode and compression level 1 ...
       24072 cells,     1 zone  ...
       80918 faces,     7 zones ...
       33000 nodes,     1 zone  ...
  Done.
Done.

Writing to Engs-30669:"C:\Users\kebl7595\Desktop\CFD\Runs\Flap\0 degrees\project1.dat.h5" in NODE0 mode and compression level 1 ...
  Writing results.
Done.

> /file/export/ascii "./surface.dat" wing () no pressure mach-number quit no

Writing "./surface.dat"...

Writing information to ascii file ...
Done.


> /report/forces/wall-forces y -0. -1 0 y "Lift"

> /report/forces/wall-forces y 1 -0. 0 y "Drag"

> ;/exit

> /exit y

Posting ANSYS Product Improvement Program performance data 
Done.
Auto-Transcript Stop Time:  10:24:13, 22 May 2024 GMT Daylight Time 
Total Transcript Time: 16 Minute 15 Second.
