Auto-Transcript Start Time:  10:41:45, 21 May 2024 GMT Daylight Time 
Current Directory: "C:\Users\kebl7595\Desktop\CFD\Runs\Viscous\3 degrees"

              Welcome to ANSYS Fluent 2023 R1

              Copyright 1987-2023 ANSYS, Inc. All Rights Reserved.
              Unauthorized use, distribution or duplication is prohibited.
              This product is subject to U.S. laws governing export and re-export.
              For full Legal Notice, see documentation.

Build Time: Nov 28 2022 09:52:02 EST  Build Id: 10208  
 
Connected License Server List:	1055@ansyslic.eng.ox.ac.uk

*********************************************
Info: Your license enables 4-way parallel execution.
For faster simulations, please start the application with the appropriate parallel options.
*********************************************


     --------------------------------------------------------------
     This is an academic version of ANSYS FLUENT. Usage of this product
     license is limited to the terms and conditions specified in your ANSYS
     license form, additional terms section.
     --------------------------------------------------------------
Host spawning Node 0 on machine "Engs-30669" (win64).

------------------------------------------------------------------------------------
ID    Hostname    Core  O.S.         PID    Vendor                                 
------------------------------------------------------------------------------------
n0    Engs-30669  1/32  Windows-x64  19104  13th Gen Intel(R) Core(TM) i9-13900    
host  Engs-30669        Windows-x64  47988  13th Gen Intel(R) Core(TM) i9-13900    

MPI Option Selected: intel
------------------------------------------------------------------------------------

Cleanup script file is C:\\Users\\kebl7595\\Desktop\\CFD\\Runs\\Viscous\\3 degrees\\cleanup-fluent-Engs-30669-47988.bat
QA Service Message :
QA Services Agreement Enabled. This application is included in the scope of an ANSYS QA Services Agreement.
Posting ANSYS Product Improvement Program startup data
Done.

Reading journal file C:/Users/kebl7595/Desktop/CFD/Runs/Viscous/3 degrees/project1.jou...

> /file/set-batch-options no no no 

> 
define/                 parametric-study/       solve/
display/                plot/                   surface/
exit                    preferences/            switch-to-meshing-mode
file/                   print-license-usage     turbo-workflow/
mesh/                   report/                 views/
parallel/               server/

> /file/import/cgns/mesh  "./project1.cgns"Note: Rank = 0: Process affinity not being set (6).

Importing "./project1.cgns"

Opening library "C:\\PROGRA~1\\ANSYSI~1\\v231\\fluent\\fluent23.1.0\\vki\\win64\\devtools4.4.6.dll"... done.

Read    17864 nodes
   12996 hexahedral cells, zone  1
    9462 quadrilateral wall faces, zone  2.
   33972 quadrilateral interior faces, zone  3.
     282 quadrilateral interface faces, zone  4.
       6 quadrilateral wall faces, zone  5.

Building...
     mesh
     materials,
     interface,
     domains,
     zones,
	default_exterior-1
	interface-default_subface
	default_interior-1
	default_subface
	default
     parallel,
The automatic selection for flux type has changed to Rhie-Chow: momentum based.

Done.


> 
adjoint/                parallel/               server/
define/                 parametric-study/       solve/
display/                plot/                   surface/
exit                    preferences/            turbo-workflow/
file/                   print-license-usage     views/
mesh/                   report/

> /define/models/solver/density-based-implicit yes

> 
adjoint/                parallel/               server/
define/                 parametric-study/       solve/
display/                plot/                   surface/
exit                    preferences/            turbo-workflow/
file/                   print-license-usage     views/
mesh/                   report/

> /define/models/energy? yes yes invalid command [yes]
yes

> /define/models/viscous/kw-standard? yes

> 
adjoint/                parallel/               server/
define/                 parametric-study/       solve/
display/                plot/                   surface/
exit                    preferences/            turbo-workflow/
file/                   print-license-usage     views/
mesh/                   report/

> /define/materials/change-create air air air is a fluid
yes 
Density
ideal-gas no data required.

no no no no no no

> 
adjoint/                parallel/               server/
define/                 parametric-study/       solve/
display/                plot/                   surface/
exit                    preferences/            turbo-workflow/
file/                   print-license-usage     views/
mesh/                   report/

> /mesh/modify-zones/sep-face-zone-angle 2 90 yes

 4332 faces in contiguous region 0
 228 faces in contiguous region 1
 342 faces in contiguous region 2
 4332 faces in contiguous region 3
 228 faces in contiguous region 4
 Separates zone 2 into 5 zone(s).
Updating new zone information...
   created new zone default_subface:010 from default_subface
   created new zone default_subface:009 from default_subface
   created new zone default_subface:008 from default_subface
   created new zone default_subface:007 from default_subface
done.

> 
adjoint/                parallel/               server/
define/                 parametric-study/       solve/
display/                plot/                   surface/
exit                    preferences/            turbo-workflow/
file/                   print-license-usage     views/
mesh/                   report/

> /define/boundary-conditions/zone-name  5   te

> /define/boundary-conditions/zone-name  7 wing

> /define/boundary-conditions/zone-name  2 sym1

> /define/boundary-conditions/zone-name  9 sym2

> 
adjoint/                parallel/               server/
define/                 parametric-study/       solve/
display/                plot/                   surface/
exit                    preferences/            turbo-workflow/
file/                   print-license-usage     views/
mesh/                   report/

> /define/boundary-conditions/zone-name  8 far1

> /define/boundary-conditions/zone-name 10 far2

> 
adjoint/                parallel/               server/
define/                 parametric-study/       solve/
display/                plot/                   surface/
exit                    preferences/            turbo-workflow/
file/                   print-license-usage     views/
mesh/                   report/

> /define/boundary-conditions/zone-type  8 pressure-far-field

> /define/boundary-conditions/zone-type 10 pressure-far-field

> /define/boundary-conditions/zone-type  2 symmetry

> /define/boundary-conditions/zone-type  9 symmetry

> 
adjoint/                parallel/               server/
define/                 parametric-study/       solve/
display/                plot/                   surface/
exit                    preferences/            turbo-workflow/
file/                   print-license-usage     views/
mesh/                   report/

> /define/boundary-conditions/pressure-far-field (far2 far1)
far1 no 0 no 0.1 no 300 yes no 0.99863 no 0.052336 no 0. no yes 5 0.02

> /define/boundary-conditions/pressure-far-field (far2 far1)
far2 no 0 no 0.1 no 300 yes no 0.99863 no 0.052336 no 0. no yes 5 0.02

> 
adjoint/                parallel/               server/
define/                 parametric-study/       solve/
display/                plot/                   surface/
exit                    preferences/            turbo-workflow/
file/                   print-license-usage     views/
mesh/                   report/

> /solve/initialize/compute-defaults/pressure-far-field (far2 far1)
far1

> /solve/initialize/initialize-flow

> 
adjoint/                parallel/               server/
define/                 parametric-study/       solve/
display/                plot/                   surface/
exit                    preferences/            turbo-workflow/
file/                   print-license-usage     views/
mesh/                   report/

> /solve/monitors/residual/convergence-criteria 1.e-9 1.e-9 1.e-9 1.e-9 1.e-9 1.e-9 1.e-9

> /solve/iterate 2000

  iter  continuity  x-velocity  y-velocity  z-velocity      energy           k       omega     time/iter
     1  1.0000e+00  1.0000e+00  1.0000e+00  1.0000e+00  1.0000e+00  1.8055e-01  1.3234e-01  0:00:00 1999
     2  5.1656e-01  3.4835e-01  4.2560e-01  1.0000e+00  5.1717e-01  1.3750e-01  1.0552e-01  0:33:18 1998
     3  2.9395e-01  1.9501e-01  2.3044e-01  1.0000e+00  2.9418e-01  1.0830e-01  8.6749e-02  0:26:38 1997
     4  1.8927e-01  1.6102e-01  1.5542e-01  7.2914e-01  1.8931e-01  8.8527e-02  7.2765e-02  0:21:17 1996
     5  1.3786e-01  1.4163e-01  1.0893e-01  6.7977e-01  1.3787e-01  7.5296e-02  6.2304e-02  0:17:01 1995
     6  1.1103e-01  1.0747e-01  7.7213e-02  8.6393e-01  1.1107e-01  6.5227e-02  5.4639e-02  0:13:37 1994
     7  9.4703e-02  8.2321e-02  5.6283e-02  9.0695e-01  9.4778e-02  5.7091e-02  4.8506e-02  0:10:53 1993
     8  8.2108e-02  6.5260e-02  4.3071e-02  7.8737e-01  8.2210e-02  5.0398e-02  4.3443e-02  0:08:42 1992
     9  7.1918e-02  5.3456e-02  3.4801e-02  7.1554e-01  7.2033e-02  4.4860e-02  3.9165e-02  0:06:58 1991
    10  6.3657e-02  4.5720e-02  2.9374e-02  6.6605e-01  6.3775e-02  4.0303e-02  3.5526e-02  0:05:34 1990
    11  5.7202e-02  4.1568e-02  2.5403e-02  6.1697e-01  5.7316e-02  3.6554e-02  3.2408e-02  0:04:27 1989

  iter  continuity  x-velocity  y-velocity  z-velocity      energy           k       omega     time/iter
    12  5.2414e-02  3.9753e-02  2.2292e-02  5.7118e-01  5.2523e-02  3.3409e-02  2.9749e-02  0:03:33 1988
    13  4.9221e-02  3.9442e-02  1.9738e-02  5.3559e-01  4.9324e-02  3.0717e-02  2.7454e-02  0:02:51 1987
    14  4.7423e-02  4.0034e-02  1.7645e-02  5.1354e-01  4.7521e-02  2.8414e-02  2.5439e-02  0:02:16 1986
    15  4.6766e-02  4.1143e-02  1.5999e-02  5.0578e-01  4.6859e-02  2.6408e-02  2.3658e-02  0:08:26 1985
    16  4.7012e-02  4.2584e-02  1.4765e-02  5.0368e-01  4.7100e-02  2.4647e-02  2.2088e-02  0:06:45 1984
    17  4.7879e-02  4.4272e-02  1.3943e-02  5.1067e-01  4.7964e-02  2.3072e-02  2.0689e-02  0:05:24 1983
    18  4.9165e-02  4.6172e-02  1.3469e-02  5.2094e-01  4.9244e-02  2.1651e-02  1.9427e-02  0:04:19 1982
    19  5.0675e-02  4.8178e-02  1.3284e-02  5.3201e-01  5.0750e-02  2.0368e-02  1.8282e-02  0:03:27 1981
    20  5.2240e-02  5.0093e-02  1.3410e-02  5.4344e-01  5.2309e-02  1.9190e-02  1.7244e-02  0:02:45 1980
    21  5.3706e-02  5.1776e-02  1.3817e-02  5.5457e-01  5.3769e-02  1.8102e-02  1.6294e-02  0:02:12 1979
    22  5.4934e-02  5.3076e-02  1.4512e-02  5.6549e-01  5.4990e-02  1.7097e-02  1.5422e-02  0:01:46 1978

  iter  continuity  x-velocity  y-velocity  z-velocity      energy           k       omega     time/iter
    23  5.5806e-02  5.3893e-02  1.5412e-02  5.7413e-01  5.5854e-02  1.6166e-02  1.4617e-02  0:01:25 1977
    24  5.6224e-02  5.4187e-02  1.6407e-02  5.7907e-01  5.6263e-02  1.5298e-02  1.3871e-02  0:01:08 1976
    25  5.6123e-02  5.3910e-02  1.7409e-02  5.7930e-01  5.6152e-02  1.4492e-02  1.3183e-02  0:00:54 1975
    26  5.5462e-02  5.3059e-02  1.8322e-02  5.7281e-01  5.5482e-02  1.3736e-02  1.2540e-02  0:00:43 1974
    27  5.4225e-02  5.1616e-02  1.9083e-02  5.5733e-01  5.4235e-02  1.3035e-02  1.1944e-02  0:00:35 1973
    28  5.2401e-02  4.9459e-02  1.9650e-02  5.3600e-01  5.2403e-02  1.2385e-02  1.1387e-02  0:00:28 1972
    29  5.0015e-02  4.6578e-02  2.0055e-02  5.0606e-01  5.0009e-02  1.1781e-02  1.0864e-02  0:00:22 1971
    30  4.7108e-02  4.3375e-02  2.0153e-02  4.7025e-01  4.7095e-02  1.1222e-02  1.0373e-02  0:00:18 1970
    31  4.3739e-02  3.9865e-02  2.0002e-02  4.3167e-01  4.3721e-02  1.0704e-02  9.9038e-03  0:06:48 1969
    32  3.9960e-02  3.6121e-02  1.9653e-02  3.9554e-01  3.9938e-02  1.0221e-02  9.4655e-03  0:05:26 1968
    33  3.5829e-02  3.2265e-02  1.9154e-02  3.6637e-01  3.5805e-02  9.7760e-03  9.0480e-03  0:04:21 1967

  iter  continuity  x-velocity  y-velocity  z-velocity      energy           k       omega     time/iter
    34  3.1438e-02  2.8520e-02  1.8562e-02  3.5087e-01  3.1413e-02  9.3626e-03  8.6463e-03  0:03:29 1966
    35  2.6880e-02  2.5125e-02  1.7910e-02  3.5359e-01  2.6855e-02  8.9735e-03  8.2645e-03  0:02:47 1965
    36  2.2273e-02  2.2475e-02  1.7237e-02  3.7302e-01  2.2249e-02  8.6000e-03  7.9013e-03  0:02:13 1964
    37  1.7748e-02  2.0918e-02  1.6581e-02  4.0925e-01  1.7725e-02  8.2434e-03  7.5566e-03  0:01:47 1963
    38  1.3478e-02  2.0650e-02  1.5987e-02  4.5714e-01  1.3456e-02  7.9024e-03  7.2262e-03  0:01:25 1962
    39  9.7696e-03  2.1635e-02  1.5472e-02  5.1278e-01  9.7468e-03  7.5692e-03  6.9087e-03  0:01:08 1961
    40  7.2870e-03  2.3538e-02  1.5072e-02  5.7071e-01  7.2601e-03  7.2661e-03  6.6247e-03  0:00:55 1960
    41  6.9688e-03  2.5930e-02  1.4799e-02  6.2719e-01  6.9392e-03  6.9896e-03  6.3418e-03  0:00:44 1959
    42  8.6295e-03  2.8487e-02  1.4635e-02  6.7848e-01  8.6009e-03  6.7183e-03  6.0677e-03  0:00:35 1958
    43  1.1085e-02  3.0965e-02  1.4557e-02  7.2328e-01  1.1057e-02  6.4544e-03  5.7979e-03  0:00:28 1957
    44  1.3642e-02  3.3224e-02  1.4524e-02  7.5835e-01  1.3614e-02  6.2112e-03  5.5450e-03  0:00:22 1956

  iter  continuity  x-velocity  y-velocity  z-velocity      energy           k       omega     time/iter
    45  1.6032e-02  3.5179e-02  1.4506e-02  7.8186e-01  1.6004e-02  5.9706e-03  5.2962e-03  0:00:18 1955
    46  1.8150e-02  3.6770e-02  1.4471e-02  7.9178e-01  1.8122e-02  5.7362e-03  5.0587e-03  0:00:14 1954
    47  1.9960e-02  3.7975e-02  1.4398e-02  7.8432e-01  1.9933e-02  5.5203e-03  4.8301e-03  0:00:11 1953
    48  2.1451e-02  3.8797e-02  1.4279e-02  7.7252e-01  2.1424e-02  5.3186e-03  4.6108e-03  0:06:40 1952
    49  2.2622e-02  3.9241e-02  1.4114e-02  7.4484e-01  2.2596e-02  5.1289e-03  4.4025e-03  0:05:19 1951
    50  2.3485e-02  3.9353e-02  1.3897e-02  6.9312e-01  2.3460e-02  4.9473e-03  4.2100e-03  0:04:15 1950
    51  2.4058e-02  3.9129e-02  1.3642e-02  6.4535e-01  2.4034e-02  4.7761e-03  4.0287e-03  0:03:24 1949
    52  2.4361e-02  3.8602e-02  1.3343e-02  5.9298e-01  2.4339e-02  4.6141e-03  3.8577e-03  0:02:43 1948
    53  2.4415e-02  3.7773e-02  1.3015e-02  5.3631e-01  2.4395e-02  4.4647e-03  3.6969e-03  0:02:11 1947
    54  2.4246e-02  3.6692e-02  1.2650e-02  4.7527e-01  2.4227e-02  4.3403e-03  3.5476e-03  0:01:44 1946
    55  2.3875e-02  3.5397e-02  1.2253e-02  4.1878e-01  2.3859e-02  4.2450e-03  3.4177e-03  0:01:23 1945

  iter  continuity  x-velocity  y-velocity  z-velocity      energy           k       omega     time/iter
    56  2.3326e-02  3.3892e-02  1.1849e-02  3.7060e-01  2.3312e-02  4.1557e-03  3.2989e-03  0:01:07 1944
    57  2.2622e-02  3.2232e-02  1.1429e-02  3.3722e-01  2.2609e-02  4.0680e-03  3.1906e-03  0:00:53 1943
    58  2.1783e-02  3.0451e-02  1.0999e-02  3.2717e-01  2.1772e-02  3.9832e-03  3.0914e-03  0:00:43 1942
    59  2.0829e-02  2.8575e-02  1.0564e-02  3.4114e-01  2.0819e-02  3.8971e-03  2.9961e-03  0:00:34 1941
    60  1.9775e-02  2.6624e-02  1.0125e-02  3.7404e-01  1.9766e-02  3.8170e-03  2.9087e-03  0:00:27 1940
    61  1.8633e-02  2.4594e-02  9.6797e-03  4.1749e-01  1.8626e-02  3.7401e-03  2.8257e-03  0:00:22 1939
    62  1.7417e-02  2.2526e-02  9.2254e-03  4.6332e-01  1.7410e-02  3.6640e-03  2.7452e-03  0:00:17 1938
    63  1.6134e-02  2.0463e-02  8.7497e-03  5.0652e-01  1.6129e-02  3.5901e-03  2.6699e-03  0:00:14 1937
    64  1.4795e-02  1.8401e-02  8.2667e-03  5.4358e-01  1.4789e-02  3.5141e-03  2.5950e-03  0:00:11 1936
    65  1.3411e-02  1.6414e-02  7.7586e-03  5.7143e-01  1.3406e-02  3.4344e-03  2.5179e-03  0:00:09 1935
    66  1.1997e-02  1.4545e-02  7.2319e-03  5.8907e-01  1.1992e-02  3.3511e-03  2.4470e-03  0:06:34 1934

  iter  continuity  x-velocity  y-velocity  z-velocity      energy           k       omega     time/iter
    67  1.0563e-02  1.2853e-02  6.6927e-03  5.9625e-01  1.0558e-02  3.2680e-03  2.3726e-03  0:05:15 1933
    68  9.1260e-03  1.1405e-02  6.1494e-03  5.8918e-01  9.1209e-03  3.1863e-03  2.3178e-03  0:04:12 1932
    69  7.7117e-03  1.0280e-02  5.6105e-03  5.7822e-01  7.7062e-03  3.1048e-03  2.2510e-03  0:03:21 1931
    70  6.3526e-03  9.5788e-03  5.0868e-03  5.6597e-01  6.3467e-03  3.0203e-03  2.1758e-03  0:02:41 1930
    71  5.1450e-03  9.3685e-03  4.5871e-03  5.4146e-01  5.1385e-03  2.9363e-03  2.0990e-03  0:02:09 1929
    72  4.2834e-03  9.6211e-03  4.1307e-03  5.1111e-01  4.2768e-03  2.8513e-03  2.0468e-03  0:01:43 1928
    73  4.0282e-03  1.0284e-02  3.7263e-03  4.7829e-01  4.0227e-03  2.7638e-03  1.9935e-03  0:01:22 1927
    74  4.6431e-03  1.1257e-02  3.3669e-03  4.4939e-01  4.6400e-03  2.6770e-03  1.9411e-03  0:01:06 1926
    75  5.9604e-03  1.2418e-02  3.0550e-03  4.2850e-01  5.9595e-03  2.5949e-03  1.8973e-03  0:00:53 1925
    76  7.7131e-03  1.3667e-02  2.8183e-03  4.2201e-01  7.7138e-03  2.5186e-03  1.8599e-03  0:00:42 1924
    77  9.7398e-03  1.4938e-02  2.6954e-03  4.3231e-01  9.7415e-03  2.4500e-03  1.8271e-03  0:00:34 1923

  iter  continuity  x-velocity  y-velocity  z-velocity      energy           k       omega     time/iter
    78  1.1879e-02  1.6145e-02  2.6790e-03  4.5668e-01  1.1881e-02  2.3892e-03  1.7878e-03  0:00:27 1922
    79  1.4030e-02  1.7298e-02  2.8549e-03  4.9879e-01  1.4032e-02  2.3341e-03  1.7540e-03  0:00:22 1921
    80  1.6091e-02  1.8351e-02  3.1466e-03  5.5517e-01  1.6094e-02  2.2850e-03  1.7246e-03  0:00:17 1920
    81  1.8007e-02  1.9287e-02  3.5126e-03  6.1521e-01  1.8010e-02  2.2514e-03  1.6979e-03  0:00:14 1919
    82  1.9737e-02  2.0059e-02  3.9171e-03  6.7271e-01  1.9739e-02  2.2343e-03  1.6781e-03  0:00:11 1918
    83  2.1253e-02  2.0651e-02  4.3365e-03  7.2503e-01  2.1255e-02  2.2167e-03  1.6574e-03  0:00:09 1917
    84  2.2538e-02  2.1083e-02  4.7338e-03  7.7055e-01  2.2539e-02  2.1994e-03  1.6292e-03  0:06:30 1916
    85  2.3577e-02  2.1341e-02  5.0953e-03  8.0625e-01  2.3576e-02  2.1815e-03  1.6032e-03  0:05:12 1915
    86  2.4355e-02  2.1415e-02  5.4149e-03  8.2876e-01  2.4353e-02  2.1626e-03  1.5734e-03  0:04:09 1914
    87  2.4867e-02  2.1303e-02  5.6848e-03  8.3697e-01  2.4864e-02  2.1447e-03  1.5410e-03  0:03:19 1913
    88  2.5112e-02  2.1013e-02  5.8983e-03  8.2838e-01  2.5108e-02  2.1280e-03  1.5193e-03  0:02:40 1912

  iter  continuity  x-velocity  y-velocity  z-velocity      energy           k       omega     time/iter
    89  2.5088e-02  2.0557e-02  6.0483e-03  8.0159e-01  2.5082e-02  2.1135e-03  1.4918e-03  0:02:08 1911
    90  2.4781e-02  1.9926e-02  6.1445e-03  7.6715e-01  2.4774e-02  2.0981e-03  1.4649e-03  0:01:42 1910
    91  2.4199e-02  1.9147e-02  6.1786e-03  7.2308e-01  2.4191e-02  2.0808e-03  1.4374e-03  0:01:22 1909
    92  2.3365e-02  1.8245e-02  6.1483e-03  6.6184e-01  2.3356e-02  2.0628e-03  1.4053e-03  0:01:05 1908
    93  2.2308e-02  1.7262e-02  6.0700e-03  6.0763e-01  2.2298e-02  2.0446e-03  1.3775e-03  0:00:52 1907
    94  2.0944e-02  1.6382e-02  5.8764e-03  5.3935e-01  2.0934e-02  2.0253e-03  1.3491e-03  0:00:42 1906
    95  1.9507e-02  1.5146e-02  5.6822e-03  4.6400e-01  1.9497e-02  2.0081e-03  1.3231e-03  0:00:33 1905
    96  1.7835e-02  1.4020e-02  5.4578e-03  3.8953e-01  1.7825e-02  1.9931e-03  1.3079e-03  0:00:27 1904
    97  1.5984e-02  1.3014e-02  5.1981e-03  3.2697e-01  1.5975e-02  1.9773e-03  1.2988e-03  0:00:21 1903
    98  1.4014e-02  1.2203e-02  4.9077e-03  2.9620e-01  1.4005e-02  1.9583e-03  1.2866e-03  0:00:17 1902
    99  1.1969e-02  1.1591e-02  4.6190e-03  3.0953e-01  1.1960e-02  1.9371e-03  1.2874e-03  0:00:14 1901

  iter  continuity  x-velocity  y-velocity  z-velocity      energy           k       omega     time/iter
   100  9.8879e-03  1.1212e-02  4.3472e-03  3.6323e-01  9.8796e-03  1.9137e-03  1.2871e-03  0:00:11 1900
   101  7.7908e-03  1.1094e-02  4.1008e-03  4.4186e-01  7.7833e-03  1.8920e-03  1.2684e-03  0:06:29 1899
   102  5.8463e-03  1.1253e-02  3.9015e-03  5.3150e-01  5.8394e-03  1.8696e-03  1.2489e-03  0:05:11 1898
   103  4.3019e-03  1.1644e-02  3.7615e-03  6.2428e-01  4.2956e-03  1.8472e-03  1.2187e-03  0:04:08 1897
   104  3.6297e-03  1.2207e-02  3.6757e-03  7.1434e-01  3.6247e-03  1.8237e-03  1.1915e-03  0:03:19 1896
   105  4.2341e-03  1.2873e-02  3.6706e-03  7.9671e-01  4.2307e-03  1.8001e-03  1.1743e-03  0:02:39 1895
   106  5.6321e-03  1.3582e-02  3.7364e-03  8.6886e-01  5.6293e-03  1.7773e-03  1.1579e-03  0:02:07 1894
   107  7.2837e-03  1.4278e-02  3.8577e-03  9.2949e-01  7.2810e-03  1.7545e-03  1.1484e-03  0:01:42 1893
   108  8.9511e-03  1.4918e-02  4.0170e-03  9.7790e-01  8.9481e-03  1.7319e-03  1.1385e-03  0:01:21 1892
   109  1.0535e-02  1.5473e-02  4.1967e-03  1.0129e+00  1.0532e-02  1.7122e-03  1.1305e-03  0:01:05 1891
   110  1.1985e-02  1.5913e-02  4.3830e-03  1.0334e+00  1.1982e-02  1.6955e-03  1.1208e-03  0:00:52 1890

  iter  continuity  x-velocity  y-velocity  z-velocity      energy           k       omega     time/iter
   111  1.3269e-02  1.6229e-02  4.5611e-03  1.0388e+00  1.3266e-02  1.6771e-03  1.1096e-03  0:00:41 1889
   112  1.4369e-02  1.6436e-02  4.7023e-03  1.0130e+00  1.4365e-02  1.6598e-03  1.0973e-03  0:00:33 1888
   113  1.5277e-02  1.6499e-02  4.8307e-03  9.8349e-01  1.5273e-02  1.6490e-03  1.0904e-03  0:00:27 1887
   114  1.5985e-02  1.6410e-02  4.9396e-03  9.4890e-01  1.5981e-02  1.6404e-03  1.0848e-03  0:00:21 1886
   115  1.6491e-02  1.6186e-02  5.0158e-03  9.1939e-01  1.6488e-02  1.6318e-03  1.0771e-03  0:00:17 1885
   116  1.6795e-02  1.5834e-02  5.0550e-03  8.8375e-01  1.6792e-02  1.6215e-03  1.0721e-03  0:00:14 1884
   117  1.6901e-02  1.5359e-02  5.0571e-03  8.2704e-01  1.6898e-02  1.6100e-03  1.0618e-03  0:00:11 1883
   118  1.6813e-02  1.4766e-02  5.0252e-03  7.6731e-01  1.6811e-02  1.5988e-03  1.0507e-03  0:06:25 1882
   119  1.6540e-02  1.4065e-02  4.9630e-03  6.9383e-01  1.6538e-02  1.5869e-03  1.0388e-03  0:05:08 1881
   120  1.6092e-02  1.3293e-02  4.8615e-03  6.1386e-01  1.6091e-02  1.5750e-03  1.0260e-03  0:04:06 1880
   121  1.5482e-02  1.2474e-02  4.7273e-03  5.2878e-01  1.5481e-02  1.5617e-03  1.0070e-03  0:03:17 1879

  iter  continuity  x-velocity  y-velocity  z-velocity      energy           k       omega     time/iter
   122  1.4721e-02  1.1573e-02  4.5759e-03  4.4052e-01  1.4720e-02  1.5457e-03  9.8969e-04  0:02:37 1878
   123  1.3824e-02  1.0621e-02  4.4004e-03  3.5272e-01  1.3823e-02  1.5282e-03  9.7237e-04  0:02:06 1877
   124  1.2806e-02  9.6430e-03  4.2013e-03  2.6823e-01  1.2805e-02  1.5112e-03  9.5837e-04  0:01:41 1876
   125  1.1684e-02  8.6626e-03  3.9822e-03  1.9491e-01  1.1684e-02  1.4954e-03  9.4876e-04  0:01:20 1875
   126  1.0479e-02  7.7090e-03  3.7468e-03  1.5051e-01  1.0479e-02  1.4793e-03  9.4176e-04  0:01:04 1874
   127  9.2093e-03  6.8141e-03  3.4985e-03  1.5799e-01  9.2090e-03  1.4620e-03  9.3266e-04  0:00:51 1873
   128  7.8978e-03  6.0147e-03  3.2414e-03  2.0603e-01  7.8974e-03  1.4438e-03  9.2476e-04  0:00:41 1872
   129  6.5714e-03  5.3489e-03  2.9790e-03  2.7031e-01  6.5707e-03  1.4230e-03  9.1348e-04  0:00:33 1871
   130  5.2559e-03  4.8702e-03  2.7199e-03  3.3786e-01  5.2549e-03  1.4023e-03  9.0267e-04  0:00:26 1870
   131  4.0032e-03  4.6279e-03  2.4640e-03  4.0241e-01  4.0017e-03  1.3813e-03  8.8790e-04  0:00:21 1869
   132  2.9120e-03  4.6111e-03  2.2206e-03  4.6098e-01  2.9096e-03  1.3584e-03  8.7252e-04  0:00:17 1868

  iter  continuity  x-velocity  y-velocity  z-velocity      energy           k       omega     time/iter
   133  2.2119e-03  4.7963e-03  2.0027e-03  5.1281e-01  2.2086e-03  1.3377e-03  8.5995e-04  0:00:13 1867
   134  2.2371e-03  5.1264e-03  1.8148e-03  5.5674e-01  2.2338e-03  1.3161e-03  8.4805e-04  0:00:11 1866
   135  2.9025e-03  5.5390e-03  1.6686e-03  5.9282e-01  2.9000e-03  1.2928e-03  8.3823e-04  0:00:09 1865
   136  3.8286e-03  5.9855e-03  1.5750e-03  6.2188e-01  3.8268e-03  1.2688e-03  8.2431e-04  0:00:07 1864
   137  4.8045e-03  6.4286e-03  1.5400e-03  6.4312e-01  4.8031e-03  1.2454e-03  8.0996e-04  0:06:18 1863
   138  5.7487e-03  6.8440e-03  1.5622e-03  6.5719e-01  5.7475e-03  1.2225e-03  7.9438e-04  0:05:02 1862
   139  6.6257e-03  7.2149e-03  1.6328e-03  6.6617e-01  6.6247e-03  1.2009e-03  7.8123e-04  0:04:02 1861
   140  7.4156e-03  7.5302e-03  1.7380e-03  6.6795e-01  7.4146e-03  1.1808e-03  7.6571e-04  0:03:13 1860
   141  8.1059e-03  7.7835e-03  1.8640e-03  6.6235e-01  8.1049e-03  1.1617e-03  7.4921e-04  0:02:35 1859
   142  8.6886e-03  7.9699e-03  1.9988e-03  6.4932e-01  8.6876e-03  1.1438e-03  7.3367e-04  0:02:04 1858
   143  9.1596e-03  8.0873e-03  2.1332e-03  6.3606e-01  9.1586e-03  1.1285e-03  7.1958e-04  0:01:39 1857

  iter  continuity  x-velocity  y-velocity  z-velocity      energy           k       omega     time/iter
   144  9.5170e-03  8.1350e-03  2.2609e-03  6.2113e-01  9.5159e-03  1.1148e-03  7.0182e-04  0:01:19 1856
   145  9.7610e-03  8.1144e-03  2.3763e-03  5.9412e-01  9.7597e-03  1.1022e-03  6.8938e-04  0:01:03 1855
   146  9.8934e-03  8.0302e-03  2.4754e-03  5.7052e-01  9.8921e-03  1.0897e-03  6.7883e-04  0:00:51 1854
   147  9.9175e-03  7.8829e-03  2.5570e-03  5.4280e-01  9.9161e-03  1.0766e-03  6.6719e-04  0:00:40 1853
   148  9.8375e-03  7.6796e-03  2.6178e-03  5.1093e-01  9.8360e-03  1.0624e-03  6.5669e-04  0:00:32 1852
   149  9.6588e-03  7.4260e-03  2.6569e-03  4.7428e-01  9.6572e-03  1.0461e-03  6.4569e-04  0:00:26 1851
   150  9.3873e-03  7.1289e-03  2.6742e-03  4.3548e-01  9.3857e-03  1.0290e-03  6.3603e-04  0:00:21 1850
   151  9.0299e-03  6.7957e-03  2.6699e-03  3.9364e-01  9.0283e-03  1.0112e-03  6.2707e-04  0:00:17 1849
   152  8.5939e-03  6.4351e-03  2.6443e-03  3.5165e-01  8.5923e-03  9.9365e-04  6.1547e-04  0:00:13 1848
   153  8.0873e-03  6.0570e-03  2.5984e-03  3.0826e-01  8.0858e-03  9.7626e-04  6.0737e-04  0:06:20 1847
   154  7.5186e-03  5.6721e-03  2.5330e-03  2.6481e-01  7.5171e-03  9.5886e-04  5.9972e-04  0:05:04 1846

  iter  continuity  x-velocity  y-velocity  z-velocity      energy           k       omega     time/iter
   155  6.8966e-03  5.2935e-03  2.4499e-03  2.2208e-01  6.8953e-03  9.4101e-04  5.9307e-04  0:04:03 1845
   156  6.2310e-03  4.9351e-03  2.3505e-03  1.8206e-01  6.2297e-03  9.2315e-04  5.8227e-04  0:03:14 1844
   157  5.5319e-03  4.6118e-03  2.2369e-03  1.4509e-01  5.5308e-03  9.0531e-04  5.7075e-04  0:02:35 1843
   158  4.8104e-03  4.3397e-03  2.1113e-03  1.1577e-01  4.8094e-03  8.8720e-04  5.6803e-04  0:02:04 1842
   159  4.0782e-03  4.1329e-03  1.9762e-03  1.0027e-01  4.0773e-03  8.7183e-04  5.6093e-04  0:01:39 1841
   160  3.3509e-03  4.0026e-03  1.8343e-03  1.0328e-01  3.3501e-03  8.5913e-04  5.6355e-04  0:01:19 1840
   161  2.6491e-03  3.9529e-03  1.6885e-03  1.2057e-01  2.6482e-03  8.4818e-04  5.5463e-04  0:01:03 1839
   162  2.0175e-03  3.9816e-03  1.5420e-03  1.4587e-01  2.0164e-03  8.3703e-04  5.5184e-04  0:00:51 1838
   163  1.5408e-03  4.0779e-03  1.3987e-03  1.7455e-01  1.5393e-03  8.2510e-04  5.4297e-04  0:00:41 1837
   164  1.3663e-03  4.2266e-03  1.2633e-03  2.0362e-01  1.3643e-03  8.1233e-04  5.4132e-04  0:00:32 1836
   165  1.5639e-03  4.4091e-03  1.1410e-03  2.3130e-01  1.5617e-03  7.9967e-04  5.3856e-04  0:00:26 1835

  iter  continuity  x-velocity  y-velocity  z-velocity      energy           k       omega     time/iter
   166  1.9930e-03  4.6100e-03  1.0382e-03  2.5655e-01  1.9908e-03  7.8626e-04  5.3709e-04  0:00:21 1834
   167  2.5059e-03  4.8144e-03  9.6071e-04  2.7828e-01  2.5037e-03  7.7260e-04  5.2470e-04  0:00:17 1833
   168  3.0308e-03  5.0103e-03  9.1341e-04  2.9939e-01  3.0286e-03  7.5947e-04  5.1482e-04  0:00:13 1832
   169  3.5347e-03  5.1881e-03  8.9868e-04  3.1737e-01  3.5326e-03  7.4729e-04  5.0796e-04  0:00:11 1831
   170  4.0010e-03  5.3403e-03  9.1458e-04  3.3102e-01  3.9989e-03  7.3560e-04  5.0116e-04  0:06:14 1830
   171  4.4208e-03  5.4622e-03  9.5537e-04  3.3993e-01  4.4187e-03  7.2431e-04  4.9644e-04  0:04:59 1829
   172  4.7878e-03  5.5503e-03  1.0138e-03  3.4630e-01  4.7857e-03  7.1400e-04  4.9239e-04  0:03:59 1828
   173  5.0978e-03  5.6009e-03  1.0822e-03  3.5122e-01  5.0957e-03  7.0486e-04  4.8640e-04  0:03:11 1827
   174  5.3487e-03  5.6123e-03  1.1543e-03  3.5263e-01  5.3467e-03  6.9525e-04  4.8123e-04  0:02:33 1826
   175  5.5386e-03  5.5852e-03  1.2251e-03  3.5191e-01  5.5367e-03  6.8507e-04  4.7754e-04  0:02:02 1825
   176  5.6694e-03  5.5191e-03  1.2910e-03  3.4975e-01  5.6676e-03  6.7506e-04  4.7171e-04  0:01:38 1824

  iter  continuity  x-velocity  y-velocity  z-velocity      energy           k       omega     time/iter
   177  5.7415e-03  5.4152e-03  1.3495e-03  3.4393e-01  5.7398e-03  6.6603e-04  4.6585e-04  0:01:18 1823
   178  5.7561e-03  5.2757e-03  1.3989e-03  3.3474e-01  5.7546e-03  6.5731e-04  4.5990e-04  0:01:03 1822
   179  5.7147e-03  5.1023e-03  1.4381e-03  3.2214e-01  5.7134e-03  6.4919e-04  4.5206e-04  0:00:50 1821
   180  5.6198e-03  4.8988e-03  1.4664e-03  3.0792e-01  5.6186e-03  6.4122e-04  4.4552e-04  0:00:40 1820
   181  5.4743e-03  4.6685e-03  1.4831e-03  2.9167e-01  5.4732e-03  6.3341e-04  4.3895e-04  0:00:32 1819
   182  5.2814e-03  4.4153e-03  1.4883e-03  2.7289e-01  5.2804e-03  6.2572e-04  4.3374e-04  0:00:26 1818
   183  5.0451e-03  4.1434e-03  1.4818e-03  2.5203e-01  5.0442e-03  6.1782e-04  4.3063e-04  0:00:20 1817
   184  4.7694e-03  3.8576e-03  1.4641e-03  2.2977e-01  4.7687e-03  6.0938e-04  4.2548e-04  0:00:16 1816
   185  4.4591e-03  3.5636e-03  1.4352e-03  2.0685e-01  4.4585e-03  6.0093e-04  4.2314e-04  0:00:13 1815
   186  4.1187e-03  3.2667e-03  1.3965e-03  1.8346e-01  4.1182e-03  5.9413e-04  4.2309e-04  0:00:10 1814
   187  3.7534e-03  2.9744e-03  1.3490e-03  1.6013e-01  3.7531e-03  5.8862e-04  4.2542e-04  0:06:11 1813

  iter  continuity  x-velocity  y-velocity  z-velocity      energy           k       omega     time/iter
   188  3.3682e-03  2.6964e-03  1.2920e-03  1.3793e-01  3.3680e-03  5.8352e-04  4.2773e-04  0:04:57 1812
   189  2.9700e-03  2.4407e-03  1.2272e-03  1.1806e-01  2.9699e-03  5.7890e-04  4.3072e-04  0:03:57 1811
   190  2.5663e-03  2.2173e-03  1.1560e-03  1.0160e-01  2.5662e-03  5.7533e-04  4.2818e-04  0:03:10 1810
   191  2.1652e-03  2.0381e-03  1.0797e-03  9.0255e-02  2.1653e-03  5.7178e-04  4.2678e-04  0:02:32 1809
   192  1.7789e-03  1.9134e-03  9.9991e-04  8.5846e-02  1.7791e-03  5.6835e-04  4.1963e-04  0:02:01 1808
   193  1.4252e-03  1.8503e-03  9.1832e-04  8.8945e-02  1.4255e-03  5.6383e-04  4.0505e-04  0:01:37 1807
   194  1.1359e-03  1.8490e-03  8.3680e-04  9.7190e-02  1.1362e-03  5.5813e-04  3.9449e-04  0:01:17 1806
   195  9.6492e-04  1.9020e-03  7.5769e-04  1.0875e-01  9.6531e-04  5.5225e-04  3.9011e-04  0:01:02 1805
   196  9.6577e-04  1.9965e-03  6.8306e-04  1.2204e-01  9.6608e-04  5.4639e-04  3.8684e-04  0:00:50 1804
   197  1.1211e-03  2.1182e-03  6.1698e-04  1.3572e-01  1.1213e-03  5.4083e-04  3.8296e-04  0:00:40 1803
   198  1.3626e-03  2.2540e-03  5.6354e-04  1.4859e-01  1.3626e-03  5.3627e-04  3.7824e-04  0:00:32 1802

  iter  continuity  x-velocity  y-velocity  z-velocity      energy           k       omega     time/iter
   199  1.6370e-03  2.3938e-03  5.2612e-04  1.6037e-01  1.6370e-03  5.3282e-04  3.7175e-04  0:00:25 1801
   200  1.9156e-03  2.5296e-03  5.0735e-04  1.7021e-01  1.9155e-03  5.3110e-04  3.6413e-04  0:00:20 1800
   201  2.1829e-03  2.6548e-03  5.0787e-04  1.7808e-01  2.1827e-03  5.3062e-04  3.5573e-04  0:00:16 1799
   202  2.4303e-03  2.7656e-03  5.2552e-04  1.8194e-01  2.4300e-03  5.2990e-04  3.4852e-04  0:00:13 1798
   203  2.6527e-03  2.8591e-03  5.5619e-04  1.8763e-01  2.6524e-03  5.2869e-04  3.4356e-04  0:06:10 1797
   204  2.8469e-03  2.9340e-03  5.9489e-04  1.9228e-01  2.8465e-03  5.2694e-04  3.3914e-04  0:04:56 1796
   205  3.0108e-03  2.9878e-03  6.3887e-04  1.9420e-01  3.0104e-03  5.2479e-04  3.3345e-04  0:03:56 1795
   206  3.1431e-03  3.0206e-03  6.8334e-04  1.9339e-01  3.1427e-03  5.2235e-04  3.3004e-04  0:03:09 1794
   207  3.2431e-03  3.0330e-03  7.2545e-04  1.8930e-01  3.2426e-03  5.1972e-04  3.2597e-04  0:02:31 1793
   208  3.3105e-03  3.0256e-03  7.6359e-04  1.8380e-01  3.3100e-03  5.1648e-04  3.2017e-04  0:02:01 1792
   209  3.3454e-03  2.9991e-03  7.9658e-04  1.7656e-01  3.3449e-03  5.1257e-04  3.1544e-04  0:01:37 1791

  iter  continuity  x-velocity  y-velocity  z-velocity      energy           k       omega     time/iter
   210  3.3484e-03  2.9550e-03  8.2353e-04  1.6872e-01  3.3478e-03  5.0769e-04  3.1043e-04  0:01:17 1790
   211  3.3203e-03  2.8947e-03  8.4382e-04  1.5958e-01  3.3197e-03  5.0213e-04  3.0771e-04  0:01:02 1789
   212  3.2623e-03  2.8204e-03  8.5699e-04  1.4957e-01  3.2617e-03  4.9616e-04  3.0811e-04  0:00:49 1788
   213  3.1758e-03  2.7343e-03  8.6280e-04  1.3870e-01  3.1751e-03  4.8986e-04  3.0550e-04  0:00:39 1787
   214  3.0625e-03  2.6395e-03  8.6124e-04  1.2676e-01  3.0618e-03  4.8296e-04  3.0311e-04  0:00:32 1786
   215  2.9244e-03  2.5396e-03  8.5173e-04  1.1503e-01  2.9237e-03  4.7577e-04  3.0276e-04  0:00:25 1785
   216  2.7637e-03  2.4367e-03  8.3560e-04  1.0321e-01  2.7630e-03  4.6886e-04  3.0117e-04  0:00:20 1784
   217  2.5830e-03  2.3345e-03  8.1300e-04  9.0647e-02  2.5822e-03  4.6294e-04  2.9832e-04  0:00:16 1783
   218  2.3851e-03  2.2369e-03  7.8424e-04  7.8726e-02  2.3843e-03  4.5706e-04  2.9594e-04  0:06:09 1782
   219  2.1730e-03  2.1479e-03  7.4984e-04  6.7817e-02  2.1721e-03  4.5137e-04  2.9177e-04  0:04:55 1781
   220  1.9502e-03  2.0712e-03  7.1055e-04  5.9344e-02  1.9493e-03  4.4580e-04  2.8600e-04  0:03:56 1780

  iter  continuity  x-velocity  y-velocity  z-velocity      energy           k       omega     time/iter
   221  1.7208e-03  2.0099e-03  6.6723e-04  5.3956e-02  1.7198e-03  4.3993e-04  2.8473e-04  0:03:09 1779
   222  1.4901e-03  1.9659e-03  6.2092e-04  5.2630e-02  1.4891e-03  4.3408e-04  2.8192e-04  0:02:31 1778
   223  1.2647e-03  1.9404e-03  5.7284e-04  5.4909e-02  1.2635e-03  4.2854e-04  2.7806e-04  0:02:01 1777
   224  1.0542e-03  1.9333e-03  5.2442e-04  5.9986e-02  1.0528e-03  4.2287e-04  2.7433e-04  0:01:36 1776
   225  8.7389e-04  1.9430e-03  4.7739e-04  6.7037e-02  8.7228e-04  4.1758e-04  2.6779e-04  0:01:17 1775
   226  7.4718e-04  1.9666e-03  4.3382e-04  7.4988e-02  7.4535e-04  4.1194e-04  2.6251e-04  0:01:02 1774
   227  7.0081e-04  2.0009e-03  3.9616e-04  8.3289e-02  6.9891e-04  4.0618e-04  2.5899e-04  0:00:49 1773
   228  7.4362e-04  2.0421e-03  3.6708e-04  9.1645e-02  7.4187e-04  4.0057e-04  2.5808e-04  0:00:39 1772
   229  8.5434e-04  2.0865e-03  3.4901e-04  9.9170e-02  8.5283e-04  3.9534e-04  2.5612e-04  0:00:32 1771
   230  1.0021e-03  2.1305e-03  3.4342e-04  1.0580e-01  1.0008e-03  3.9105e-04  2.5224e-04  0:00:25 1770
   231  1.1640e-03  2.1710e-03  3.5010e-04  1.1126e-01  1.1629e-03  3.8683e-04  2.4843e-04  0:06:14 1769

  iter  continuity  x-velocity  y-velocity  z-velocity      energy           k       omega     time/iter
   232  1.3265e-03  2.2053e-03  3.6714e-04  1.1595e-01  1.3256e-03  3.8275e-04  2.4576e-04  0:04:59 1768
   233  1.4815e-03  2.2312e-03  3.9170e-04  1.1942e-01  1.4806e-03  3.7987e-04  2.4091e-04  0:03:59 1767
   234  1.6238e-03  2.2470e-03  4.2080e-04  1.2163e-01  1.6230e-03  3.7795e-04  2.3765e-04  0:03:11 1766
   235  1.7501e-03  2.2513e-03  4.5187e-04  1.2224e-01  1.7494e-03  3.7574e-04  2.3460e-04  0:02:33 1765
   236  1.8582e-03  2.2432e-03  4.8285e-04  1.2193e-01  1.8576e-03  3.7340e-04  2.3397e-04  0:02:02 1764
   237  1.9465e-03  2.2222e-03  5.1220e-04  1.2038e-01  1.9459e-03  3.7081e-04  2.3440e-04  0:01:38 1763
   238  2.0139e-03  2.1881e-03  5.3875e-04  1.1791e-01  2.0135e-03  3.6785e-04  2.3411e-04  0:01:18 1762
   239  2.0600e-03  2.1411e-03  5.6163e-04  1.1404e-01  2.0596e-03  3.6483e-04  2.3258e-04  0:01:02 1761
   240  2.0844e-03  2.0816e-03  5.8020e-04  1.0923e-01  2.0840e-03  3.6249e-04  2.3078e-04  0:00:50 1760
   241  2.0872e-03  2.0105e-03  5.9406e-04  1.0339e-01  2.0869e-03  3.6021e-04  2.2804e-04  0:00:40 1759
   242  2.0689e-03  1.9288e-03  6.0291e-04  9.7118e-02  2.0686e-03  3.5751e-04  2.2426e-04  0:00:32 1758

  iter  continuity  x-velocity  y-velocity  z-velocity      energy           k       omega     time/iter
   243  2.0300e-03  1.8378e-03  6.0657e-04  8.9793e-02  2.0298e-03  3.5424e-04  2.2185e-04  0:00:26 1757
   244  1.9717e-03  1.7389e-03  6.0502e-04  8.1789e-02  1.9715e-03  3.5059e-04  2.2131e-04  0:00:20 1756
   245  1.8949e-03  1.6342e-03  5.9832e-04  7.3220e-02  1.8948e-03  3.4680e-04  2.2260e-04  0:00:16 1755
   246  1.8013e-03  1.5257e-03  5.8661e-04  6.4580e-02  1.8012e-03  3.4271e-04  2.2255e-04  0:06:04 1754
   247  1.6925e-03  1.4161e-03  5.7007e-04  5.5636e-02  1.6924e-03  3.3859e-04  2.1998e-04  0:04:51 1753
   248  1.5703e-03  1.3083e-03  5.4910e-04  4.6665e-02  1.5703e-03  3.3470e-04  2.1597e-04  0:03:53 1752
   249  1.4370e-03  1.2059e-03  5.2406e-04  3.8049e-02  1.4370e-03  3.3055e-04  2.1308e-04  0:03:06 1751
   250  1.2951e-03  1.1127e-03  4.9543e-04  3.0355e-02  1.2952e-03  3.2626e-04  2.1192e-04  0:02:29 1750
   251  1.1476e-03  1.0331e-03  4.6376e-04  2.4291e-02  1.1477e-03  3.2210e-04  2.0858e-04  0:01:59 1749
   252  9.9825e-04  9.7131e-04  4.2972e-04  2.1346e-02  9.9844e-04  3.1803e-04  2.0594e-04  0:01:35 1748
   253  8.5206e-04  9.3095e-04  3.9410e-04  2.2374e-02  8.5231e-04  3.1452e-04  2.0408e-04  0:01:16 1747

  iter  continuity  x-velocity  y-velocity  z-velocity      energy           k       omega     time/iter
   254  7.1627e-04  9.1391e-04  3.5788e-04  2.6473e-02  7.1656e-04  3.1077e-04  2.0263e-04  0:01:01 1746
   255  6.0191e-04  9.1965e-04  3.2225e-04  3.2069e-02  6.0225e-04  3.0718e-04  1.9837e-04  0:00:49 1745
   256  5.2499e-04  9.4518e-04  2.8873e-04  3.8105e-02  5.2534e-04  3.0387e-04  1.9237e-04  0:00:39 1744
   257  5.0199e-04  9.8595e-04  2.5921e-04  4.3959e-02  5.0230e-04  3.0060e-04  1.8676e-04  0:00:31 1743
   258  5.3644e-04  1.0369e-03  2.3600e-04  4.9190e-02  5.3667e-04  2.9706e-04  1.8124e-04  0:00:25 1742
   259  6.1395e-04  1.0933e-03  2.2144e-04  5.4243e-02  6.1408e-04  2.9321e-04  1.7664e-04  0:00:20 1741
   260  7.1518e-04  1.1512e-03  2.1718e-04  5.8748e-02  7.1522e-04  2.8917e-04  1.7237e-04  0:00:16 1740
   261  8.2567e-04  1.2073e-03  2.2328e-04  6.2508e-02  8.2565e-04  2.8500e-04  1.6808e-04  0:00:13 1739
   262  9.3643e-04  1.2588e-03  2.3809e-04  6.5286e-02  9.3636e-04  2.8080e-04  1.6433e-04  0:05:58 1738
   263  1.0420e-03  1.3042e-03  2.5902e-04  6.7408e-02  1.0419e-03  2.7655e-04  1.6125e-04  0:04:46 1737
   264  1.1388e-03  1.3422e-03  2.8352e-04  6.8746e-02  1.1386e-03  2.7228e-04  1.5933e-04  0:03:49 1736

  iter  continuity  x-velocity  y-velocity  z-velocity      energy           k       omega     time/iter
   265  1.2245e-03  1.3718e-03  3.0951e-04  6.9174e-02  1.2243e-03  2.6817e-04  1.5861e-04  0:03:03 1735
   266  1.2974e-03  1.3925e-03  3.3539e-04  6.8809e-02  1.2972e-03  2.6452e-04  1.5972e-04  0:02:26 1734
   267  1.3564e-03  1.4040e-03  3.6001e-04  6.7829e-02  1.3562e-03  2.6102e-04  1.6204e-04  0:01:57 1733
   268  1.4008e-03  1.4065e-03  3.8251e-04  6.6290e-02  1.4006e-03  2.5782e-04  1.6389e-04  0:01:33 1732
   269  1.4301e-03  1.4005e-03  4.0229e-04  6.4206e-02  1.4298e-03  2.5461e-04  1.6412e-04  0:01:15 1731
   270  1.4441e-03  1.3862e-03  4.1894e-04  6.1697e-02  1.4438e-03  2.5123e-04  1.6397e-04  0:01:00 1730
   271  1.4428e-03  1.3646e-03  4.3209e-04  5.8758e-02  1.4426e-03  2.4795e-04  1.6269e-04  0:00:48 1729
   272  1.4266e-03  1.3365e-03  4.4152e-04  5.5428e-02  1.4264e-03  2.4453e-04  1.6014e-04  0:00:38 1728
   273  1.3960e-03  1.3032e-03  4.4710e-04  5.1691e-02  1.3957e-03  2.4118e-04  1.5857e-04  0:00:31 1727
   274  1.3515e-03  1.2661e-03  4.4879e-04  4.7597e-02  1.3512e-03  2.3766e-04  1.5736e-04  0:00:24 1726
   275  1.2940e-03  1.2267e-03  4.4660e-04  4.3201e-02  1.2937e-03  2.3448e-04  1.5565e-04  0:00:20 1725

  iter  continuity  x-velocity  y-velocity  z-velocity      energy           k       omega     time/iter
   276  1.2245e-03  1.1866e-03  4.4062e-04  3.8681e-02  1.2243e-03  2.3164e-04  1.5538e-04  0:00:16 1724
   277  1.1442e-03  1.1476e-03  4.3096e-04  3.4042e-02  1.1440e-03  2.2905e-04  1.5458e-04  0:05:57 1723
   278  1.0544e-03  1.1113e-03  4.1785e-04  2.9351e-02  1.0542e-03  2.2677e-04  1.5366e-04  0:04:45 1722
   279  9.5664e-04  1.0796e-03  4.0153e-04  2.4652e-02  9.5640e-04  2.2502e-04  1.5064e-04  0:03:48 1721
   280  8.5264e-04  1.0538e-03  3.8228e-04  2.0118e-02  8.5240e-04  2.2368e-04  1.4873e-04  0:03:03 1720
   281  7.4452e-04  1.0352e-03  3.6048e-04  1.5964e-02  7.4428e-04  2.2243e-04  1.4831e-04  0:02:26 1719
   282  6.3496e-04  1.0245e-03  3.3655e-04  1.2499e-02  6.3471e-04  2.2113e-04  1.4774e-04  0:01:57 1718
   283  5.2767e-04  1.0218e-03  3.1098e-04  1.0317e-02  5.2742e-04  2.1983e-04  1.4678e-04  0:01:33 1717
   284  4.2857e-04  1.0266e-03  2.8437e-04  1.0295e-02  4.2830e-04  2.1845e-04  1.4528e-04  0:01:15 1716
   285  3.4781e-04  1.0379e-03  2.5744e-04  1.2111e-02  3.4752e-04  2.1682e-04  1.4411e-04  0:01:00 1715
   286  3.0165e-04  1.0546e-03  2.3107e-04  1.4888e-02  3.0135e-04  2.1511e-04  1.4350e-04  0:00:48 1714

  iter  continuity  x-velocity  y-velocity  z-velocity      energy           k       omega     time/iter
   287  3.0488e-04  1.0751e-03  2.0641e-04  1.8000e-02  3.0460e-04  2.1346e-04  1.4229e-04  0:00:38 1713
   288  3.5316e-04  1.0977e-03  1.8488e-04  2.1158e-02  3.5292e-04  2.1194e-04  1.4034e-04  0:00:30 1712
   289  4.2778e-04  1.1206e-03  1.6820e-04  2.4180e-02  4.2759e-04  2.1037e-04  1.3814e-04  0:00:24 1711
   290  5.1332e-04  1.1426e-03  1.5812e-04  2.7030e-02  5.1315e-04  2.0883e-04  1.3668e-04  0:00:19 1710
   291  6.0096e-04  1.1622e-03  1.5578e-04  2.9662e-02  6.0080e-04  2.0745e-04  1.3547e-04  0:00:16 1709
   292  6.8583e-04  1.1782e-03  1.6108e-04  3.2021e-02  6.8569e-04  2.0599e-04  1.3378e-04  0:00:12 1708
   293  7.6506e-04  1.1898e-03  1.7262e-04  3.3920e-02  7.6492e-04  2.0471e-04  1.3230e-04  0:05:51 1707
   294  8.3676e-04  1.1963e-03  1.8846e-04  3.5542e-02  8.3663e-04  2.0377e-04  1.3133e-04  0:04:41 1706
   295  8.9967e-04  1.1971e-03  2.0671e-04  3.6770e-02  8.9954e-04  2.0304e-04  1.3043e-04  0:03:45 1705
   296  9.5286e-04  1.1919e-03  2.2586e-04  3.7569e-02  9.5274e-04  2.0276e-04  1.2990e-04  0:03:00 1704
   297  9.9570e-04  1.1805e-03  2.4482e-04  3.8011e-02  9.9559e-04  2.0258e-04  1.2926e-04  0:02:24 1703

  iter  continuity  x-velocity  y-velocity  z-velocity      energy           k       omega     time/iter
   298  1.0278e-03  1.1630e-03  2.6277e-04  3.8142e-02  1.0277e-03  2.0234e-04  1.2843e-04  0:01:55 1702
   299  1.0488e-03  1.1395e-03  2.7916e-04  3.7946e-02  1.0487e-03  2.0190e-04  1.2661e-04  0:01:32 1701
   300  1.0588e-03  1.1102e-03  2.9356e-04  3.7459e-02  1.0587e-03  2.0135e-04  1.2534e-04  0:01:13 1700
   301  1.0578e-03  1.0758e-03  3.0568e-04  3.6631e-02  1.0577e-03  2.0072e-04  1.2319e-04  0:00:59 1699
   302  1.0460e-03  1.0368e-03  3.1529e-04  3.5429e-02  1.0459e-03  1.9993e-04  1.2186e-04  0:00:47 1698
   303  1.0237e-03  9.9406e-04  3.2231e-04  3.3886e-02  1.0236e-03  1.9878e-04  1.2166e-04  0:00:38 1697
   304  9.9149e-04  9.4855e-04  3.2663e-04  3.2064e-02  9.9140e-04  1.9739e-04  1.2125e-04  0:00:30 1696
   305  9.4994e-04  9.0134e-04  3.2823e-04  3.0018e-02  9.4985e-04  1.9591e-04  1.2116e-04  0:00:24 1695
   306  8.9977e-04  8.5369e-04  3.2714e-04  2.7831e-02  8.9967e-04  1.9463e-04  1.2077e-04  0:00:19 1694
   307  8.4181e-04  8.0706e-04  3.2346e-04  2.5553e-02  8.4171e-04  1.9327e-04  1.1963e-04  0:05:54 1693
   308  7.7702e-04  7.6309e-04  3.1728e-04  2.3183e-02  7.7691e-04  1.9161e-04  1.1977e-04  0:04:43 1692

  iter  continuity  x-velocity  y-velocity  z-velocity      energy           k       omega     time/iter
   309  7.0650e-04  7.2346e-04  3.0874e-04  2.0831e-02  7.0637e-04  1.8972e-04  1.2018e-04  0:03:46 1691
   310  6.3152e-04  6.8990e-04  2.9803e-04  1.8554e-02  6.3136e-04  1.8775e-04  1.1908e-04  0:03:01 1690
   311  5.5358e-04  6.6396e-04  2.8536e-04  1.6290e-02  5.5340e-04  1.8607e-04  1.1681e-04  0:02:25 1689
   312  4.7463e-04  6.4686e-04  2.7099e-04  1.3997e-02  4.7439e-04  1.8476e-04  1.1505e-04  0:01:56 1688
   313  3.9732e-04  6.3924e-04  2.5519e-04  1.1884e-02  3.9700e-04  1.8344e-04  1.1282e-04  0:01:32 1687
   314  3.2584e-04  6.4098e-04  2.3829e-04  9.9676e-03  3.2541e-04  1.8193e-04  1.1116e-04  0:01:14 1686
   315  2.6721e-04  6.5125e-04  2.2067e-04  8.3629e-03  2.6662e-04  1.8000e-04  1.0964e-04  0:00:59 1685
   316  2.3236e-04  6.6863e-04  2.0274e-04  7.2627e-03  2.3162e-04  1.7773e-04  1.0828e-04  0:00:47 1684
   317  2.3166e-04  6.9140e-04  1.8500e-04  6.8130e-03  2.3084e-04  1.7550e-04  1.0658e-04  0:00:38 1683
   318  2.6353e-04  7.1771e-04  1.6803e-04  7.0387e-03  2.6275e-04  1.7359e-04  1.0510e-04  0:00:30 1682
   319  3.1579e-04  7.4584e-04  1.5250e-04  7.7326e-03  3.1508e-04  1.7161e-04  1.0357e-04  0:00:24 1681

  iter  continuity  x-velocity  y-velocity  z-velocity      energy           k       omega     time/iter
   320  3.7728e-04  7.7424e-04  1.3916e-04  8.6768e-03  3.7665e-04  1.6964e-04  1.0192e-04  0:00:19 1680
   321  4.4128e-04  8.0160e-04  1.2882e-04  9.6956e-03  4.4070e-04  1.6762e-04  1.0051e-04  0:00:15 1679
   322  5.0398e-04  8.2683e-04  1.2213e-04  1.0663e-02  5.0345e-04  1.6571e-04  9.9562e-05  0:00:12 1678
   323  5.6313e-04  8.4910e-04  1.1946e-04  1.1507e-02  5.6264e-04  1.6379e-04  9.8498e-05  0:05:45 1677
   324  6.1725e-04  8.6774e-04  1.2064e-04  1.2192e-02  6.1679e-04  1.6171e-04  9.7463e-05  0:04:36 1676
   325  6.6534e-04  8.8231e-04  1.2503e-04  1.2690e-02  6.6490e-04  1.5966e-04  9.6627e-05  0:03:41 1675
   326  7.0665e-04  8.9247e-04  1.3169e-04  1.2994e-02  7.0623e-04  1.5751e-04  9.5423e-05  0:02:56 1674
   327  7.4067e-04  8.9808e-04  1.3968e-04  1.3120e-02  7.4028e-04  1.5537e-04  9.4065e-05  0:02:21 1673
   328  7.6704e-04  8.9909e-04  1.4815e-04  1.3065e-02  7.6666e-04  1.5341e-04  9.2288e-05  0:01:53 1672
   329  7.8552e-04  8.9561e-04  1.5645e-04  1.2835e-02  7.8516e-04  1.5131e-04  9.1582e-05  0:01:30 1671
   330  7.9602e-04  8.8782e-04  1.6407e-04  1.2433e-02  7.9568e-04  1.4914e-04  9.1031e-05  0:01:12 1670

  iter  continuity  x-velocity  y-velocity  z-velocity      energy           k       omega     time/iter
   331  7.9853e-04  8.7603e-04  1.7064e-04  1.1872e-02  7.9820e-04  1.4677e-04  9.0442e-05  0:00:58 1669
   332  7.9316e-04  8.6068e-04  1.7590e-04  1.1178e-02  7.9285e-04  1.4455e-04  9.0405e-05  0:00:46 1668
   333  7.8010e-04  8.4224e-04  1.7965e-04  1.0361e-02  7.7981e-04  1.4241e-04  9.0890e-05  0:00:37 1667
   334  7.5966e-04  8.2129e-04  1.8179e-04  9.4541e-03  7.5939e-04  1.4025e-04  9.1421e-05  0:00:29 1666
   335  7.3220e-04  7.9851e-04  1.8226e-04  8.4959e-03  7.3195e-04  1.3855e-04  9.1474e-05  0:00:24 1665
   336  6.9818e-04  7.7460e-04  1.8105e-04  7.5002e-03  6.9795e-04  1.3711e-04  9.0910e-05  0:00:19 1664
   337  6.5812e-04  7.5035e-04  1.7820e-04  6.5076e-03  6.5791e-04  1.3572e-04  9.0390e-05  0:05:48 1663
   338  6.1263e-04  7.2656e-04  1.7380e-04  5.5897e-03  6.1243e-04  1.3441e-04  8.9877e-05  0:04:38 1662
   339  5.6237e-04  7.0400e-04  1.6795e-04  4.8226e-03  5.6219e-04  1.3293e-04  8.9063e-05  0:03:42 1661
   340  5.0809e-04  6.8347e-04  1.6084e-04  4.2742e-03  5.0794e-04  1.3161e-04  8.7599e-05  0:02:58 1660
   341  4.5064e-04  6.6566e-04  1.5269e-04  4.1412e-03  4.5051e-04  1.3043e-04  8.6341e-05  0:02:22 1659

  iter  continuity  x-velocity  y-velocity  z-velocity      energy           k       omega     time/iter
   342  3.9099e-04  6.5111e-04  1.4378e-04  4.4527e-03  3.9089e-04  1.2926e-04  8.4997e-05  0:01:54 1658
   343  3.3033e-04  6.4019e-04  1.3446e-04  5.0735e-03  3.3025e-04  1.2806e-04  8.4266e-05  0:01:31 1657
   344  2.7026e-04  6.3305e-04  1.2515e-04  5.8865e-03  2.7022e-04  1.2718e-04  8.3814e-05  0:01:13 1656
   345  2.1333e-04  6.2961e-04  1.1641e-04  6.7904e-03  2.1332e-04  1.2642e-04  8.3230e-05  0:00:58 1655
   346  1.6428e-04  6.2957e-04  1.0886e-04  7.7123e-03  1.6433e-04  1.2592e-04  8.2291e-05  0:00:46 1654
   347  1.3249e-04  6.3241e-04  1.0320e-04  8.5954e-03  1.3261e-04  1.2546e-04  8.1235e-05  0:00:37 1653
   348  1.3000e-04  6.3752e-04  1.0010e-04  9.4067e-03  1.3016e-04  1.2499e-04  8.0394e-05  0:00:30 1652
   349  1.5612e-04  6.4417e-04  9.9995e-05  1.0116e-02  1.5627e-04  1.2450e-04  7.9607e-05  0:05:54 1651
   350  1.9751e-04  6.5162e-04  1.0298e-04  1.0708e-02  1.9764e-04  1.2409e-04  7.8818e-05  0:04:43 1650
   351  2.4412e-04  6.5918e-04  1.0873e-04  1.1172e-02  2.4423e-04  1.2371e-04  7.8162e-05  0:03:46 1649
   352  2.9108e-04  6.6616e-04  1.1669e-04  1.1517e-02  2.9116e-04  1.2331e-04  7.7517e-05  0:03:01 1648

  iter  continuity  x-velocity  y-velocity  z-velocity      energy           k       omega     time/iter
   353  3.3598e-04  6.7200e-04  1.2620e-04  1.1727e-02  3.3605e-04  1.2305e-04  7.6731e-05  0:02:25 1647
   354  3.7749e-04  6.7620e-04  1.3663e-04  1.1802e-02  3.7754e-04  1.2300e-04  7.6140e-05  0:01:56 1646
   355  4.1475e-04  6.7837e-04  1.4746e-04  1.1739e-02  4.1479e-04  1.2303e-04  7.5713e-05  0:01:32 1645
   356  4.4719e-04  6.7821e-04  1.5824e-04  1.1535e-02  4.4722e-04  1.2303e-04  7.5091e-05  0:01:14 1644
   357  4.7442e-04  6.7552e-04  1.6863e-04  1.1197e-02  4.7444e-04  1.2309e-04  7.4897e-05  0:00:59 1643
   358  4.9616e-04  6.7019e-04  1.7836e-04  1.0730e-02  4.9617e-04  1.2315e-04  7.4619e-05  0:00:47 1642
   359  5.1225e-04  6.6226e-04  1.8721e-04  1.0139e-02  5.1225e-04  1.2316e-04  7.4206e-05  0:00:38 1641
   360  5.2261e-04  6.5183e-04  1.9500e-04  9.4400e-03  5.2260e-04  1.2300e-04  7.3815e-05  0:00:30 1640
   361  5.2725e-04  6.3905e-04  2.0161e-04  8.6372e-03  5.2724e-04  1.2265e-04  7.3366e-05  0:00:24 1639
   362  5.2625e-04  6.2417e-04  2.0693e-04  7.7581e-03  5.2623e-04  1.2236e-04  7.3135e-05  0:00:19 1638
   363  5.1977e-04  6.0750e-04  2.1091e-04  6.8146e-03  5.1973e-04  1.2216e-04  7.2701e-05  0:05:43 1637

  iter  continuity  x-velocity  y-velocity  z-velocity      energy           k       omega     time/iter
   364  5.0802e-04  5.8943e-04  2.1350e-04  5.8302e-03  5.0798e-04  1.2191e-04  7.2311e-05  0:04:34 1636
   365  4.9130e-04  5.7040e-04  2.1467e-04  4.8345e-03  4.9125e-04  1.2155e-04  7.2050e-05  0:03:39 1635
   366  4.6997e-04  5.5094e-04  2.1445e-04  3.9200e-03  4.6992e-04  1.2114e-04  7.1904e-05  0:02:55 1634
   367  4.4446e-04  5.3157e-04  2.1284e-04  3.2007e-03  4.4439e-04  1.2073e-04  7.1674e-05  0:02:20 1633
   368  4.1525e-04  5.1289e-04  2.0990e-04  2.8918e-03  4.1517e-04  1.2033e-04  7.1981e-05  0:01:52 1632
   369  3.8292e-04  4.9550e-04  2.0570e-04  3.1249e-03  3.8282e-04  1.1991e-04  7.2332e-05  0:01:30 1631
   370  3.4813e-04  4.7998e-04  2.0030e-04  3.7934e-03  3.4800e-04  1.1945e-04  7.2286e-05  0:01:12 1630
   371  3.1165e-04  4.6683e-04  1.9381e-04  4.6981e-03  3.1149e-04  1.1917e-04  7.2096e-05  0:00:57 1629
   372  2.7447e-04  4.5648e-04  1.8634e-04  5.7065e-03  2.7427e-04  1.1905e-04  7.1538e-05  0:00:46 1628
   373  2.3784e-04  4.4917e-04  1.7801e-04  6.7269e-03  2.3758e-04  1.1884e-04  7.1034e-05  0:00:37 1627
   374  2.0354e-04  4.4501e-04  1.6895e-04  7.7107e-03  2.0321e-04  1.1856e-04  7.0476e-05  0:00:29 1626

  iter  continuity  x-velocity  y-velocity  z-velocity      energy           k       omega     time/iter
   375  1.7413e-04  4.4391e-04  1.5933e-04  8.6284e-03  1.7370e-04  1.1818e-04  7.0118e-05  0:00:23 1625
   376  1.5316e-04  4.4557e-04  1.4930e-04  9.4654e-03  1.5263e-04  1.1768e-04  6.9559e-05  0:00:19 1624
   377  1.4443e-04  4.4959e-04  1.3903e-04  1.0211e-02  1.4382e-04  1.1711e-04  6.8796e-05  0:05:40 1623
   378  1.4953e-04  4.5547e-04  1.2872e-04  1.0863e-02  1.4890e-04  1.1640e-04  6.7864e-05  0:04:31 1622
   379  1.6619e-04  4.6262e-04  1.1857e-04  1.1414e-02  1.6559e-04  1.1553e-04  6.6894e-05  0:03:37 1621
   380  1.9014e-04  4.7050e-04  1.0879e-04  1.1852e-02  1.8958e-04  1.1455e-04  6.6032e-05  0:02:54 1620
   381  2.1759e-04  4.7854e-04  9.9632e-05  1.2179e-02  2.1708e-04  1.1362e-04  6.5388e-05  0:02:19 1619
   382  2.4598e-04  4.8627e-04  9.1323e-05  1.2391e-02  2.4551e-04  1.1261e-04  6.4652e-05  0:01:51 1618
   383  2.7364e-04  4.9326e-04  8.4109e-05  1.2483e-02  2.7321e-04  1.1164e-04  6.3902e-05  0:01:29 1617
   384  2.9950e-04  4.9917e-04  7.8205e-05  1.2460e-02  2.9910e-04  1.1069e-04  6.3167e-05  0:01:11 1616
   385  3.2284e-04  5.0376e-04  7.3780e-05  1.2299e-02  3.2247e-04  1.0977e-04  6.2680e-05  0:00:57 1615

  iter  continuity  x-velocity  y-velocity  z-velocity      energy           k       omega     time/iter
   386  3.4315e-04  5.0677e-04  7.0876e-05  1.2016e-02  3.4280e-04  1.0876e-04  6.2400e-05  0:00:45 1614
   387  3.6006e-04  5.0806e-04  6.9393e-05  1.1635e-02  3.5973e-04  1.0772e-04  6.2078e-05  0:00:36 1613
   388  3.7332e-04  5.0759e-04  6.9118e-05  1.1156e-02  3.7300e-04  1.0669e-04  6.1661e-05  0:00:29 1612
   389  3.8276e-04  5.0538e-04  6.9750e-05  1.0580e-02  3.8246e-04  1.0564e-04  6.1450e-05  0:00:23 1611
   390  3.8831e-04  5.0146e-04  7.0961e-05  9.9124e-03  3.8802e-04  1.0455e-04  6.1315e-05  0:00:19 1610
   391  3.8995e-04  4.9596e-04  7.2445e-05  9.1610e-03  3.8968e-04  1.0341e-04  6.1025e-05  0:00:15 1609
   392  3.8774e-04  4.8903e-04  7.3936e-05  8.3398e-03  3.8748e-04  1.0222e-04  6.0872e-05  0:05:33 1608
   393  3.8176e-04  4.8087e-04  7.5228e-05  7.4497e-03  3.8152e-04  1.0103e-04  6.0711e-05  0:04:27 1607
   394  3.7218e-04  4.7170e-04  7.6171e-05  6.5075e-03  3.7195e-04  9.9697e-05  6.0514e-05  0:03:33 1606
   395  3.5917e-04  4.6179e-04  7.6665e-05  5.5378e-03  3.5895e-04  9.8364e-05  6.0150e-05  0:02:50 1605
   396  3.4298e-04  4.5143e-04  7.6655e-05  4.5540e-03  3.4277e-04  9.7067e-05  5.9547e-05  0:02:16 1604

  iter  continuity  x-velocity  y-velocity  z-velocity      energy           k       omega     time/iter
   397  3.2388e-04  4.4090e-04  7.6127e-05  3.6076e-03  3.2368e-04  9.5839e-05  5.8979e-05  0:01:49 1603
   398  3.0217e-04  4.3053e-04  7.5103e-05  2.7769e-03  3.0198e-04  9.4718e-05  5.8430e-05  0:01:27 1602
   399  2.7822e-04  4.2059e-04  7.3637e-05  2.2297e-03  2.7804e-04  9.3697e-05  5.7938e-05  0:01:10 1601
   400  2.5240e-04  4.1135e-04  7.1813e-05  2.2146e-03  2.5223e-04  9.2751e-05  5.7486e-05  0:00:56 1600
   401  2.2517e-04  4.0304e-04  6.9753e-05  2.7292e-03  2.2501e-04  9.1834e-05  5.7188e-05  0:00:45 1599
   402  1.9704e-04  3.9585e-04  6.7607e-05  3.5291e-03  1.9689e-04  9.1066e-05  5.6753e-05  0:00:36 1598
   403  1.6864e-04  3.8989e-04  6.5555e-05  4.4354e-03  1.6849e-04  9.0368e-05  5.6193e-05  0:00:28 1597
   404  1.4082e-04  3.8522e-04  6.3798e-05  5.3676e-03  1.4068e-04  8.9758e-05  5.5540e-05  0:00:23 1596
   405  1.1486e-04  3.8181e-04  6.2543e-05  6.2728e-03  1.1472e-04  8.9159e-05  5.4861e-05  0:00:18 1595
   406  9.2891e-05  3.7956e-04  6.1984e-05  7.1286e-03  9.2770e-05  8.8564e-05  5.4054e-05  0:05:33 1594
   407  7.8426e-05  3.7832e-04  6.2270e-05  7.9237e-03  7.8323e-05  8.7916e-05  5.3134e-05  0:04:27 1593

  iter  continuity  x-velocity  y-velocity  z-velocity      energy           k       omega     time/iter
   408  7.5361e-05  3.7789e-04  6.3484e-05  8.6547e-03  7.5289e-05  8.7231e-05  5.2209e-05  0:03:33 1592
   409  8.4000e-05  3.7802e-04  6.5627e-05  9.3112e-03  8.3962e-05  8.6553e-05  5.1412e-05  0:02:50 1591
   410  1.0028e-04  3.7846e-04  6.8620e-05  9.8840e-03  1.0026e-04  8.5835e-05  5.0657e-05  0:02:16 1590
   411  1.1998e-04  3.7897e-04  7.2329e-05  1.0376e-02  1.1998e-04  8.5125e-05  4.9925e-05  0:01:49 1589
   412  1.4055e-04  3.7930e-04  7.6590e-05  1.0781e-02  1.4055e-04  8.4453e-05  4.9183e-05  0:01:27 1588
   413  1.6058e-04  3.7924e-04  8.1227e-05  1.1099e-02  1.6059e-04  8.3791e-05  4.8423e-05  0:01:10 1587
   414  1.7927e-04  3.7860e-04  8.6073e-05  1.1329e-02  1.7927e-04  8.3119e-05  4.7666e-05  0:00:56 1586
   415  1.9611e-04  3.7723e-04  9.0974e-05  1.1464e-02  1.9611e-04  8.2433e-05  4.6908e-05  0:00:44 1585
   416  2.1078e-04  3.7501e-04  9.5791e-05  1.1505e-02  2.1078e-04  8.1782e-05  4.6195e-05  0:00:36 1584
   417  2.2305e-04  3.7187e-04  1.0041e-04  1.1454e-02  2.2306e-04  8.1182e-05  4.5449e-05  0:00:28 1583
   418  2.3279e-04  3.6777e-04  1.0472e-04  1.1314e-02  2.3280e-04  8.0583e-05  4.4740e-05  0:00:23 1582

  iter  continuity  x-velocity  y-velocity  z-velocity      energy           k       omega     time/iter
   419  2.3992e-04  3.6271e-04  1.0865e-04  1.1087e-02  2.3991e-04  7.9963e-05  4.4124e-05  0:00:18 1581
   420  2.4438e-04  3.5674e-04  1.1213e-04  1.0769e-02  2.4438e-04  7.9389e-05  4.3579e-05  0:05:31 1580
   421  2.4621e-04  3.4992e-04  1.1510e-04  1.0370e-02  2.4620e-04  7.8863e-05  4.3045e-05  0:04:24 1579
   422  2.4544e-04  3.4236e-04  1.1751e-04  9.8962e-03  2.4543e-04  7.8330e-05  4.2565e-05  0:03:31 1578
   423  2.4216e-04  3.3422e-04  1.1935e-04  9.3547e-03  2.4214e-04  7.7785e-05  4.2033e-05  0:02:49 1577
   424  2.3649e-04  3.2566e-04  1.2058e-04  8.7523e-03  2.3647e-04  7.7204e-05  4.1530e-05  0:02:15 1576
   425  2.2859e-04  3.1687e-04  1.2120e-04  8.0938e-03  2.2857e-04  7.6610e-05  4.1187e-05  0:01:48 1575
   426  2.1865e-04  3.0807e-04  1.2121e-04  7.3897e-03  2.1862e-04  7.6050e-05  4.0943e-05  0:01:26 1574
   427  2.0690e-04  2.9948e-04  1.2061e-04  6.6473e-03  2.0686e-04  7.5506e-05  4.0748e-05  0:01:09 1573
   428  1.9359e-04  2.9132e-04  1.1944e-04  5.8868e-03  1.9354e-04  7.4949e-05  4.0620e-05  0:00:55 1572
   429  1.7905e-04  2.8381e-04  1.1770e-04  5.1260e-03  1.7898e-04  7.4354e-05  4.0463e-05  0:00:44 1571

  iter  continuity  x-velocity  y-velocity  z-velocity      energy           k       omega     time/iter
   430  1.6363e-04  2.7714e-04  1.1544e-04  4.3741e-03  1.6354e-04  7.3713e-05  4.0223e-05  0:00:35 1570
   431  1.4778e-04  2.7149e-04  1.1269e-04  3.6572e-03  1.4767e-04  7.3050e-05  3.9969e-05  0:05:42 1569
   432  1.3206e-04  2.6698e-04  1.0951e-04  3.0268e-03  1.3192e-04  7.2369e-05  3.9668e-05  0:04:33 1568
   433  1.1719e-04  2.6367e-04  1.0593e-04  2.5264e-03  1.1702e-04  7.1681e-05  3.9155e-05  0:03:39 1567
   434  1.0412e-04  2.6158e-04  1.0203e-04  2.2350e-03  1.0389e-04  7.1014e-05  3.8620e-05  0:02:55 1566
   435  9.3999e-05  2.6063e-04  9.7856e-05  2.1968e-03  9.3720e-05  7.0417e-05  3.8193e-05  0:02:20 1565
   436  8.8073e-05  2.6073e-04  9.3477e-05  2.4170e-03  8.7743e-05  6.9790e-05  3.7800e-05  0:01:52 1564
   437  8.7159e-05  2.6171e-04  8.8961e-05  2.7986e-03  8.6794e-05  6.9131e-05  3.7385e-05  0:01:29 1563
   438  9.1158e-05  2.6341e-04  8.4377e-05  3.2556e-03  9.0779e-05  6.8446e-05  3.6914e-05  0:01:11 1562
   439  9.9065e-05  2.6560e-04  7.9795e-05  3.7319e-03  9.8691e-05  6.7778e-05  3.6438e-05  0:00:57 1561
   440  1.0953e-04  2.6808e-04  7.5288e-05  4.1897e-03  1.0917e-04  6.7094e-05  3.5948e-05  0:00:46 1560

  iter  continuity  x-velocity  y-velocity  z-velocity      energy           k       omega     time/iter
   441  1.2133e-04  2.7065e-04  7.0925e-05  4.6150e-03  1.2099e-04  6.6395e-05  3.5445e-05  0:00:36 1559
   442  1.3341e-04  2.7298e-04  6.6749e-05  4.9884e-03  1.3308e-04  6.5692e-05  3.4958e-05  0:00:29 1558
   443  1.4529e-04  2.7527e-04  6.2883e-05  5.3081e-03  1.4498e-04  6.4988e-05  3.4540e-05  0:00:23 1557
   444  1.5641e-04  2.7720e-04  5.9313e-05  5.5672e-03  1.5612e-04  6.4316e-05  3.4143e-05  0:05:30 1556
   445  1.6648e-04  2.7855e-04  5.6103e-05  5.7624e-03  1.6620e-04  6.3632e-05  3.3712e-05  0:04:24 1555
   446  1.7526e-04  2.7926e-04  5.3305e-05  5.8923e-03  1.7499e-04  6.2903e-05  3.3318e-05  0:03:31 1554
   447  1.8256e-04  2.7927e-04  5.0941e-05  5.9571e-03  1.8230e-04  6.2114e-05  3.2949e-05  0:02:49 1553
   448  1.8825e-04  2.7857e-04  4.9003e-05  5.9572e-03  1.8800e-04  6.1324e-05  3.2575e-05  0:02:15 1552
   449  1.9223e-04  2.7718e-04  4.7458e-05  5.8986e-03  1.9198e-04  6.0541e-05  3.2204e-05  0:01:48 1551
   450  1.9446e-04  2.7511e-04  4.6255e-05  5.7833e-03  1.9422e-04  5.9766e-05  3.1931e-05  0:01:26 1550
   451  1.9494e-04  2.7242e-04  4.5333e-05  5.6118e-03  1.9471e-04  5.8997e-05  3.1697e-05  0:01:09 1549

  iter  continuity  x-velocity  y-velocity  z-velocity      energy           k       omega     time/iter
   452  1.9368e-04  2.6917e-04  4.4627e-05  5.3843e-03  1.9346e-04  5.8263e-05  3.1521e-05  0:00:55 1548
   453  1.9072e-04  2.6544e-04  4.4075e-05  5.1094e-03  1.9051e-04  5.7502e-05  3.1372e-05  0:00:44 1547
   454  1.8614e-04  2.6132e-04  4.3621e-05  4.7902e-03  1.8593e-04  5.6755e-05  3.1239e-05  0:00:35 1546
   455  1.8001e-04  2.5692e-04  4.3217e-05  4.4299e-03  1.7981e-04  5.6039e-05  3.1130e-05  0:00:28 1545
   456  1.7243e-04  2.5235e-04  4.2826e-05  4.0367e-03  1.7224e-04  5.5334e-05  3.1064e-05  0:00:22 1544
   457  1.6353e-04  2.4772e-04  4.2425e-05  3.6226e-03  1.6334e-04  5.4635e-05  3.1016e-05  0:05:27 1543
   458  1.5344e-04  2.4317e-04  4.2002e-05  3.1942e-03  1.5325e-04  5.3976e-05  3.0938e-05  0:04:21 1542
   459  1.4231e-04  2.3879e-04  4.1561e-05  2.7679e-03  1.4213e-04  5.3320e-05  3.0811e-05  0:03:29 1541
   460  1.3032e-04  2.3469e-04  4.1112e-05  2.3588e-03  1.3014e-04  5.2737e-05  3.0640e-05  0:02:47 1540
   461  1.1766e-04  2.3096e-04  4.0680e-05  2.0001e-03  1.1749e-04  5.2237e-05  3.0301e-05  0:02:13 1539
   462  1.0455e-04  2.2764e-04  4.0296e-05  1.7366e-03  1.0438e-04  5.1787e-05  2.9919e-05  0:01:47 1538

  iter  continuity  x-velocity  y-velocity  z-velocity      energy           k       omega     time/iter
   463  9.1245e-05  2.2481e-04  3.9996e-05  1.6192e-03  9.1076e-05  5.1373e-05  2.9518e-05  0:01:25 1537
   464  7.8078e-05  2.2244e-04  3.9821e-05  1.6825e-03  7.7908e-05  5.0966e-05  2.9254e-05  0:01:08 1536
   465  6.5492e-05  2.2055e-04  3.9810e-05  1.8970e-03  6.5319e-05  5.0563e-05  2.8981e-05  0:00:55 1535
   466  5.4153e-05  2.1910e-04  3.9998e-05  2.1992e-03  5.3977e-05  5.0192e-05  2.8684e-05  0:00:44 1534
   467  4.5109e-05  2.1805e-04  4.0407e-05  2.5414e-03  4.4934e-05  4.9833e-05  2.8349e-05  0:00:35 1533
   468  3.9824e-05  2.1731e-04  4.1051e-05  2.8874e-03  3.9660e-05  4.9459e-05  2.7958e-05  0:00:28 1532
   469  3.9475e-05  2.1680e-04  4.1930e-05  3.2219e-03  3.9341e-05  4.9081e-05  2.7510e-05  0:05:28 1531
   470  4.3695e-05  2.1644e-04  4.3028e-05  3.5323e-03  4.3597e-05  4.8736e-05  2.7035e-05  0:04:23 1530
   471  5.0831e-05  2.1612e-04  4.4320e-05  3.8133e-03  5.0765e-05  4.8416e-05  2.6542e-05  0:03:30 1529
   472  5.9309e-05  2.1575e-04  4.5770e-05  4.0570e-03  5.9265e-05  4.8108e-05  2.6057e-05  0:02:48 1528
   473  6.8117e-05  2.1525e-04  4.7337e-05  4.2615e-03  6.8087e-05  4.7818e-05  2.5640e-05  0:02:14 1527

  iter  continuity  x-velocity  y-velocity  z-velocity      energy           k       omega     time/iter
   474  7.6666e-05  2.1455e-04  4.8977e-05  4.4278e-03  7.6645e-05  4.7538e-05  2.5281e-05  0:01:47 1526
   475  8.4602e-05  2.1358e-04  5.0646e-05  4.5542e-03  8.4588e-05  4.7282e-05  2.4928e-05  0:01:26 1525
   476  9.1706e-05  2.1228e-04  5.2298e-05  4.6423e-03  9.1695e-05  4.7020e-05  2.4610e-05  0:01:09 1524
   477  9.7833e-05  2.1063e-04  5.3894e-05  4.6957e-03  9.7825e-05  4.6769e-05  2.4299e-05  0:00:55 1523
   478  1.0289e-04  2.0860e-04  5.5395e-05  4.7096e-03  1.0288e-04  4.6506e-05  2.4009e-05  0:00:44 1522
   479  1.0682e-04  2.0618e-04  5.6767e-05  4.6840e-03  1.0682e-04  4.6255e-05  2.3731e-05  0:00:35 1521
   480  1.0960e-04  2.0340e-04  5.7981e-05  4.6205e-03  1.0959e-04  4.6004e-05  2.3452e-05  0:00:28 1520
   481  1.1121e-04  2.0026e-04  5.9013e-05  4.5202e-03  1.1120e-04  4.5744e-05  2.3219e-05  0:00:22 1519
   482  1.1167e-04  1.9680e-04  5.9841e-05  4.3859e-03  1.1166e-04  4.5474e-05  2.2972e-05  0:05:22 1518
   483  1.1100e-04  1.9308e-04  6.0450e-05  4.2064e-03  1.1099e-04  4.5188e-05  2.2717e-05  0:04:17 1517
   484  1.0927e-04  1.8917e-04  6.0829e-05  3.9921e-03  1.0925e-04  4.4899e-05  2.2476e-05  0:03:25 1516

  iter  continuity  x-velocity  y-velocity  z-velocity      energy           k       omega     time/iter
   485  1.0652e-04  1.8511e-04  6.0971e-05  3.7509e-03  1.0650e-04  4.4589e-05  2.2288e-05  0:02:44 1515
   486  1.0283e-04  1.8099e-04  6.0874e-05  3.4878e-03  1.0281e-04  4.4279e-05  2.2172e-05  0:02:11 1514
   487  9.8302e-05  1.7689e-04  6.0538e-05  3.2147e-03  9.8280e-05  4.3973e-05  2.2077e-05  0:01:45 1513
   488  9.3043e-05  1.7287e-04  5.9967e-05  2.9351e-03  9.3015e-05  4.3661e-05  2.1976e-05  0:01:24 1512
   489  8.7177e-05  1.6903e-04  5.9168e-05  2.6462e-03  8.7142e-05  4.3351e-05  2.1886e-05  0:01:07 1511
   490  8.0851e-05  1.6540e-04  5.8150e-05  2.3616e-03  8.0808e-05  4.3034e-05  2.1803e-05  0:00:54 1510
   491  7.4237e-05  1.6209e-04  5.6928e-05  2.0967e-03  7.4182e-05  4.2713e-05  2.1715e-05  0:00:43 1509
   492  6.7539e-05  1.5912e-04  5.5517e-05  1.8624e-03  6.7471e-05  4.2375e-05  2.1588e-05  0:00:34 1508
   493  6.1009e-05  1.5657e-04  5.3937e-05  1.6656e-03  6.0924e-05  4.2041e-05  2.1338e-05  0:00:27 1507
   494  5.4955e-05  1.5444e-04  5.2208e-05  1.5209e-03  5.4850e-05  4.1701e-05  2.1117e-05  0:05:23 1506
   495  4.9754e-05  1.5272e-04  5.0354e-05  1.4368e-03  4.9626e-05  4.1350e-05  2.0908e-05  0:04:18 1505

  iter  continuity  x-velocity  y-velocity  z-velocity      energy           k       omega     time/iter
   496  4.5831e-05  1.5143e-04  4.8399e-05  1.4180e-03  4.5678e-05  4.0998e-05  2.0776e-05  0:03:27 1504
   497  4.3581e-05  1.5051e-04  4.6370e-05  1.4569e-03  4.3406e-05  4.0635e-05  2.0625e-05  0:02:45 1503
   498  4.3222e-05  1.4993e-04  4.4292e-05  1.5349e-03  4.3032e-05  4.0286e-05  2.0467e-05  0:02:12 1502
   499  4.4679e-05  1.4963e-04  4.2193e-05  1.6352e-03  4.4483e-05  3.9931e-05  2.0310e-05  0:01:46 1501
   500  4.7606e-05  1.4954e-04  4.0101e-05  1.7420e-03  4.7411e-05  3.9587e-05  2.0138e-05  0:01:24 1500
   501  5.1537e-05  1.4961e-04  3.8044e-05  1.8472e-03  5.1348e-05  3.9253e-05  1.9983e-05  0:01:07 1499
   502  5.6023e-05  1.4976e-04  3.6047e-05  1.9395e-03  5.5842e-05  3.8921e-05  1.9850e-05  0:00:54 1498
   503  6.0702e-05  1.4993e-04  3.4137e-05  2.0164e-03  6.0529e-05  3.8583e-05  1.9717e-05  0:00:43 1497
   504  6.5298e-05  1.5008e-04  3.2337e-05  2.0725e-03  6.5133e-05  3.8223e-05  1.9587e-05  0:00:34 1496
   505  6.9608e-05  1.5013e-04  3.0667e-05  2.1053e-03  6.9451e-05  3.7864e-05  1.9429e-05  0:00:28 1495
   506  7.3483e-05  1.5007e-04  2.9142e-05  2.1139e-03  7.3333e-05  3.7574e-05  1.9245e-05  0:05:21 1494

  iter  continuity  x-velocity  y-velocity  z-velocity      energy           k       omega     time/iter
   507  7.6815e-05  1.4984e-04  2.7774e-05  2.0970e-03  7.6672e-05  3.7274e-05  1.9043e-05  0:04:16 1493
   508  7.9528e-05  1.4944e-04  2.6566e-05  2.0523e-03  7.9391e-05  3.6942e-05  1.8825e-05  0:03:25 1492
   509  8.1569e-05  1.4883e-04  2.5520e-05  1.9826e-03  8.1436e-05  3.6597e-05  1.8615e-05  0:02:44 1491
   510  8.2902e-05  1.4805e-04  2.4628e-05  1.8875e-03  8.2775e-05  3.6249e-05  1.8413e-05  0:02:11 1490
   511  8.3511e-05  1.4705e-04  2.3877e-05  1.7683e-03  8.3388e-05  3.5882e-05  1.8214e-05  0:01:45 1489
   512  8.3392e-05  1.4590e-04  2.3251e-05  1.6296e-03  8.3274e-05  3.5506e-05  1.8039e-05  0:01:24 1488
   513  8.2554e-05  1.4456e-04  2.2730e-05  1.4668e-03  8.2440e-05  3.5135e-05  1.7947e-05  0:01:07 1487
   514  8.1017e-05  1.4311e-04  2.2293e-05  1.2902e-03  8.0907e-05  3.4766e-05  1.7891e-05  0:00:54 1486
   515  7.8812e-05  1.4154e-04  2.1920e-05  1.0989e-03  7.8705e-05  3.4405e-05  1.7835e-05  0:00:43 1485
   516  7.5977e-05  1.3991e-04  2.1594e-05  8.9682e-04  7.5874e-05  3.4042e-05  1.7787e-05  0:00:34 1484
   517  7.2561e-05  1.3822e-04  2.1300e-05  6.9654e-04  7.2461e-05  3.3702e-05  1.7725e-05  0:00:27 1483

  iter  continuity  x-velocity  y-velocity  z-velocity      energy           k       omega     time/iter
   518  6.8618e-05  1.3654e-04  2.1029e-05  5.1439e-04  6.8522e-05  3.3364e-05  1.7650e-05  0:00:22 1482
   519  6.4214e-05  1.3488e-04  2.0775e-05  3.9936e-04  6.4120e-05  3.3044e-05  1.7568e-05  0:05:14 1481
   520  5.9419e-05  1.3328e-04  2.0536e-05  4.1856e-04  5.9327e-05  3.2754e-05  1.7463e-05  0:04:11 1480
   521  5.4314e-05  1.3176e-04  2.0314e-05  5.6165e-04  5.4225e-05  3.2476e-05  1.7338e-05  0:03:20 1479
   522  4.8992e-05  1.3035e-04  2.0117e-05  7.6118e-04  4.8903e-05  3.2223e-05  1.7187e-05  0:02:40 1478
   523  4.3557e-05  1.2905e-04  1.9953e-05  9.8213e-04  4.3469e-05  3.2025e-05  1.7015e-05  0:02:08 1477
   524  3.8139e-05  1.2786e-04  1.9832e-05  1.2077e-03  3.8052e-05  3.1827e-05  1.6827e-05  0:01:42 1476
   525  3.2903e-05  1.2680e-04  1.9767e-05  1.4284e-03  3.2816e-05  3.1629e-05  1.6585e-05  0:01:22 1475
   526  2.8074e-05  1.2585e-04  1.9768e-05  1.6410e-03  2.7986e-05  3.1419e-05  1.6325e-05  0:01:05 1474
   527  2.3969e-05  1.2500e-04  1.9845e-05  1.8408e-03  2.3881e-05  3.1207e-05  1.6064e-05  0:00:52 1473
   528  2.1017e-05  1.2425e-04  2.0004e-05  2.0239e-03  2.0933e-05  3.0981e-05  1.5794e-05  0:00:42 1472

  iter  continuity  x-velocity  y-velocity  z-velocity      energy           k       omega     time/iter
   529  1.9656e-05  1.2355e-04  2.0247e-05  2.1916e-03  1.9581e-05  3.0751e-05  1.5510e-05  0:00:33 1471
   530  2.0057e-05  1.2288e-04  2.0574e-05  2.3428e-03  1.9995e-05  3.0520e-05  1.5225e-05  0:00:27 1470
   531  2.1926e-05  1.2222e-04  2.0978e-05  2.4714e-03  2.1880e-05  3.0282e-05  1.4936e-05  0:05:15 1469
   532  2.4722e-05  1.2154e-04  2.1452e-05  2.5808e-03  2.4688e-05  3.0041e-05  1.4653e-05  0:04:12 1468
   533  2.7957e-05  1.2082e-04  2.1981e-05  2.6685e-03  2.7932e-05  2.9801e-05  1.4391e-05  0:03:21 1467
   534  3.1290e-05  1.2003e-04  2.2552e-05  2.7378e-03  3.1272e-05  2.9564e-05  1.4167e-05  0:02:41 1466
   535  3.4507e-05  1.1915e-04  2.3150e-05  2.7863e-03  3.4493e-05  2.9334e-05  1.3951e-05  0:02:09 1465
   536  3.7469e-05  1.1818e-04  2.3758e-05  2.8120e-03  3.7458e-05  2.9102e-05  1.3740e-05  0:01:43 1464
   537  4.0085e-05  1.1709e-04  2.4359e-05  2.8171e-03  4.0076e-05  2.8876e-05  1.3555e-05  0:01:22 1463
   538  4.2297e-05  1.1590e-04  2.4938e-05  2.8001e-03  4.2289e-05  2.8606e-05  1.3396e-05  0:01:06 1462
   539  4.4065e-05  1.1456e-04  2.5481e-05  2.7646e-03  4.4059e-05  2.8369e-05  1.3247e-05  0:00:53 1461

  iter  continuity  x-velocity  y-velocity  z-velocity      energy           k       omega     time/iter
   540  4.5369e-05  1.1312e-04  2.5974e-05  2.7089e-03  4.5363e-05  2.8136e-05  1.3128e-05  0:00:42 1460
   541  4.6198e-05  1.1156e-04  2.6407e-05  2.6360e-03  4.6191e-05  2.7899e-05  1.3036e-05  0:00:34 1459
   542  4.6550e-05  1.0991e-04  2.6770e-05  2.5429e-03  4.6543e-05  2.7654e-05  1.2952e-05  0:00:27 1458
   543  4.6436e-05  1.0819e-04  2.7054e-05  2.4331e-03  4.6428e-05  2.7409e-05  1.2873e-05  0:05:13 1457
   544  4.5872e-05  1.0640e-04  2.7254e-05  2.3084e-03  4.5863e-05  2.7161e-05  1.2799e-05  0:04:10 1456
   545  4.4882e-05  1.0458e-04  2.7364e-05  2.1732e-03  4.4871e-05  2.6923e-05  1.2713e-05  0:03:20 1455
   546  4.3498e-05  1.0276e-04  2.7383e-05  2.0245e-03  4.3485e-05  2.6695e-05  1.2590e-05  0:02:40 1454
   547  4.1758e-05  1.0094e-04  2.7308e-05  1.8713e-03  4.1743e-05  2.6472e-05  1.2475e-05  0:02:08 1453
   548  3.9711e-05  9.9165e-05  2.7140e-05  1.7083e-03  3.9693e-05  2.6245e-05  1.2378e-05  0:01:42 1452
   549  3.7412e-05  9.7452e-05  2.6880e-05  1.5421e-03  3.7390e-05  2.6010e-05  1.2315e-05  0:01:22 1451
   550  3.4927e-05  9.5837e-05  2.6533e-05  1.3688e-03  3.4900e-05  2.5786e-05  1.2237e-05  0:01:05 1450

  iter  continuity  x-velocity  y-velocity  z-velocity      energy           k       omega     time/iter
   551  3.2334e-05  9.4327e-05  2.6102e-05  1.1965e-03  3.2300e-05  2.5562e-05  1.2147e-05  0:00:52 1449
   552  2.9726e-05  9.2947e-05  2.5592e-05  1.0351e-03  2.9685e-05  2.5346e-05  1.2047e-05  0:00:42 1448
   553  2.7216e-05  9.1706e-05  2.5012e-05  8.7279e-04  2.7166e-05  2.5137e-05  1.1939e-05  0:00:33 1447
   554  2.4939e-05  9.0621e-05  2.4368e-05  7.3073e-04  2.4879e-05  2.4922e-05  1.1821e-05  0:00:27 1446
   555  2.3051e-05  8.9687e-05  2.3669e-05  6.1145e-04  2.2979e-05  2.4707e-05  1.1707e-05  0:05:10 1445
   556  2.1710e-05  8.8881e-05  2.2925e-05  5.2439e-04  2.1627e-05  2.4485e-05  1.1595e-05  0:04:08 1444
   557  2.1049e-05  8.8228e-05  2.2144e-05  4.7407e-04  2.0956e-05  2.4271e-05  1.1473e-05  0:03:18 1443
   558  2.1121e-05  8.7679e-05  2.1337e-05  4.7407e-04  2.1021e-05  2.4056e-05  1.1341e-05  0:02:39 1442
   559  2.1880e-05  8.7256e-05  2.0516e-05  5.0741e-04  2.1777e-05  2.3847e-05  1.1207e-05  0:02:07 1441
   560  2.3194e-05  8.6904e-05  1.9690e-05  5.6502e-04  2.3091e-05  2.3629e-05  1.1066e-05  0:01:41 1440
   561  2.4895e-05  8.6624e-05  1.8870e-05  6.3236e-04  2.4794e-05  2.3404e-05  1.0922e-05  0:01:21 1439

  iter  continuity  x-velocity  y-velocity  z-velocity      energy           k       omega     time/iter
   562  2.6820e-05  8.6387e-05  1.8066e-05  6.9952e-04  2.6722e-05  2.3182e-05  1.0786e-05  0:01:05 1438
   563  2.8829e-05  8.6179e-05  1.7288e-05  7.5993e-04  2.8734e-05  2.2965e-05  1.0651e-05  0:00:52 1437
   564  3.0812e-05  8.5972e-05  1.6545e-05  8.1151e-04  3.0722e-05  2.2746e-05  1.0507e-05  0:00:41 1436
   565  3.2686e-05  8.5741e-05  1.5844e-05  8.5063e-04  3.2599e-05  2.2525e-05  1.0356e-05  0:00:33 1435
   566  3.4385e-05  8.5496e-05  1.5192e-05  8.7920e-04  3.4301e-05  2.2300e-05  1.0213e-05  0:05:13 1434
   567  3.5861e-05  8.5190e-05  1.4593e-05  8.9279e-04  3.5780e-05  2.2079e-05  1.0074e-05  0:04:10 1433
   568  3.7078e-05  8.4850e-05  1.4050e-05  8.9515e-04  3.7000e-05  2.1861e-05  9.9446e-06  0:03:20 1432
   569  3.8010e-05  8.4436e-05  1.3565e-05  8.8354e-04  3.7934e-05  2.1654e-05  9.8223e-06  0:02:40 1431
   570  3.8639e-05  8.3972e-05  1.3135e-05  8.5881e-04  3.8566e-05  2.1454e-05  9.7239e-06  0:02:08 1430
   571  3.8956e-05  8.3442e-05  1.2760e-05  8.2241e-04  3.8885e-05  2.1251e-05  9.6407e-06  0:01:42 1429
   572  3.8955e-05  8.2865e-05  1.2434e-05  7.7453e-04  3.8886e-05  2.1050e-05  9.5697e-06  0:01:22 1428

  iter  continuity  x-velocity  y-velocity  z-velocity      energy           k       omega     time/iter
   573  3.8638e-05  8.2237e-05  1.2152e-05  7.1558e-04  3.8571e-05  2.0853e-05  9.5201e-06  0:01:05 1427
   574  3.8012e-05  8.1562e-05  1.1910e-05  6.4638e-04  3.7947e-05  2.0663e-05  9.4806e-06  0:00:52 1426
   575  3.7088e-05  8.0870e-05  1.1700e-05  5.7199e-04  3.7024e-05  2.0473e-05  9.4428e-06  0:00:42 1425
   576  3.5880e-05  8.0141e-05  1.1518e-05  4.8971e-04  3.5818e-05  2.0284e-05  9.4038e-06  0:00:33 1424
   577  3.4408e-05  7.9422e-05  1.1359e-05  4.0886e-04  3.4347e-05  2.0096e-05  9.3741e-06  0:00:27 1423
   578  3.2694e-05  7.8687e-05  1.1219e-05  3.3076e-04  3.2635e-05  1.9915e-05  9.3508e-06  0:05:06 1422
   579  3.0766e-05  7.7980e-05  1.1095e-05  2.6775e-04  3.0708e-05  1.9738e-05  9.3228e-06  0:04:04 1421
   580  2.8653e-05  7.7290e-05  1.0988e-05  2.3579e-04  2.8596e-05  1.9564e-05  9.2823e-06  0:03:15 1420
   581  2.6391e-05  7.6646e-05  1.0896e-05  2.5343e-04  2.6335e-05  1.9397e-05  9.2281e-06  0:02:36 1419
   582  2.4018e-05  7.6037e-05  1.0821e-05  3.1501e-04  2.3962e-05  1.9243e-05  9.1668e-06  0:02:05 1418
   583  2.1581e-05  7.5464e-05  1.0766e-05  4.0123e-04  2.1525e-05  1.9095e-05  9.1009e-06  0:01:40 1417

  iter  continuity  x-velocity  y-velocity  z-velocity      energy           k       omega     time/iter
   584  1.9133e-05  7.4947e-05  1.0732e-05  4.9760e-04  1.9077e-05  1.8948e-05  9.0268e-06  0:01:20 1416
   585  1.6743e-05  7.4459e-05  1.0723e-05  5.9914e-04  1.6687e-05  1.8812e-05  8.9458e-06  0:01:04 1415
   586  1.4501e-05  7.4034e-05  1.0741e-05  7.0011e-04  1.4444e-05  1.8677e-05  8.8571e-06  0:00:51 1414
   587  1.2530e-05  7.3624e-05  1.0789e-05  7.9966e-04  1.2472e-05  1.8545e-05  8.7606e-06  0:00:41 1413
   588  1.0993e-05  7.3259e-05  1.0868e-05  8.9481e-04  1.0936e-05  1.8413e-05  8.6607e-06  0:00:33 1412
   589  1.0074e-05  7.2905e-05  1.0977e-05  9.8426e-04  1.0020e-05  1.8277e-05  8.5508e-06  0:00:26 1411
   590  9.8971e-06  7.2580e-05  1.1119e-05  1.0682e-03  9.8498e-06  1.8138e-05  8.4390e-06  0:05:03 1410
   591  1.0427e-05  7.2250e-05  1.1290e-05  1.1465e-03  1.0388e-05  1.7999e-05  8.3241e-06  0:04:02 1409
   592  1.1481e-05  7.1901e-05  1.1486e-05  1.2187e-03  1.1451e-05  1.7861e-05  8.2056e-06  0:03:14 1408
   593  1.2841e-05  7.1543e-05  1.1704e-05  1.2813e-03  1.2818e-05  1.7723e-05  8.0832e-06  0:02:35 1407
   594  1.4329e-05  7.1146e-05  1.1939e-05  1.3357e-03  1.4312e-05  1.7584e-05  7.9617e-06  0:02:04 1406

  iter  continuity  x-velocity  y-velocity  z-velocity      energy           k       omega     time/iter
   595  1.5826e-05  7.0732e-05  1.2184e-05  1.3777e-03  1.5812e-05  1.7446e-05  7.8498e-06  0:01:39 1405
   596  1.7250e-05  7.0255e-05  1.2433e-05  1.4138e-03  1.7239e-05  1.7311e-05  7.7451e-06  0:01:19 1404
   597  1.8549e-05  6.9748e-05  1.2682e-05  1.4381e-03  1.8539e-05  1.7175e-05  7.6537e-06  0:01:03 1403
   598  1.9685e-05  6.9180e-05  1.2923e-05  1.4541e-03  1.9677e-05  1.7038e-05  7.5767e-06  0:00:51 1402
   599  2.0636e-05  6.8580e-05  1.3151e-05  1.4622e-03  2.0629e-05  1.6900e-05  7.5028e-06  0:00:40 1401
   600  2.1386e-05  6.7923e-05  1.3360e-05  1.4620e-03  2.1379e-05  1.6761e-05  7.4351e-06  0:00:32 1400
   601  2.1926e-05  6.7208e-05  1.3547e-05  1.4527e-03  2.1919e-05  1.6619e-05  7.3711e-06  0:00:26 1399
   602  2.2253e-05  6.6457e-05  1.3706e-05  1.4361e-03  2.2246e-05  1.6475e-05  7.3099e-06  0:00:21 1398
   603  2.2366e-05  6.5664e-05  1.3834e-05  1.4116e-03  2.2359e-05  1.6326e-05  7.2546e-06  0:04:56 1397
   604  2.2271e-05  6.4861e-05  1.3928e-05  1.3794e-03  2.2264e-05  1.6174e-05  7.2111e-06  0:03:57 1396
   605  2.1977e-05  6.4012e-05  1.3985e-05  1.3396e-03  2.1969e-05  1.6027e-05  7.1796e-06  0:03:09 1395

  iter  continuity  x-velocity  y-velocity  z-velocity      energy           k       omega     time/iter
   606  2.1495e-05  6.3174e-05  1.4003e-05  1.2945e-03  2.1486e-05  1.5882e-05  7.1603e-06  0:02:31 1394
   607  2.0840e-05  6.2321e-05  1.3983e-05  1.2427e-03  2.0829e-05  1.5737e-05  7.1376e-06  0:02:01 1393
   608  2.0031e-05  6.1499e-05  1.3923e-05  1.1884e-03  2.0019e-05  1.5595e-05  7.1106e-06  0:01:37 1392
   609  1.9091e-05  6.0687e-05  1.3824e-05  1.1301e-03  1.9077e-05  1.5459e-05  7.0805e-06  0:01:17 1391
   610  1.8045e-05  5.9900e-05  1.3687e-05  1.0676e-03  1.8029e-05  1.5324e-05  7.0508e-06  0:01:02 1390
   611  1.6926e-05  5.9153e-05  1.3514e-05  1.0058e-03  1.6907e-05  1.5192e-05  7.0208e-06  0:00:49 1389
   612  1.5769e-05  5.8456e-05  1.3306e-05  9.4207e-04  1.5747e-05  1.5065e-05  6.9850e-06  0:00:39 1388
   613  1.4618e-05  5.7821e-05  1.3066e-05  8.7822e-04  1.4592e-05  1.4942e-05  6.9477e-06  0:00:32 1387
   614  1.3523e-05  5.7219e-05  1.2796e-05  8.1626e-04  1.3492e-05  1.4826e-05  6.9080e-06  0:00:25 1386
   615  1.2542e-05  5.6701e-05  1.2501e-05  7.5414e-04  1.2506e-05  1.4711e-05  6.8672e-06  0:04:57 1385
   616  1.1739e-05  5.6222e-05  1.2184e-05  6.9394e-04  1.1698e-05  1.4594e-05  6.8268e-06  0:03:58 1384

  iter  continuity  x-velocity  y-velocity  z-velocity      energy           k       omega     time/iter
   617  1.1174e-05  5.5816e-05  1.1849e-05  6.3602e-04  1.1128e-05  1.4478e-05  6.7853e-06  0:03:10 1383
   618  1.0895e-05  5.5457e-05  1.1500e-05  5.8207e-04  1.0844e-05  1.4363e-05  6.7434e-06  0:02:32 1382
   619  1.0919e-05  5.5148e-05  1.1142e-05  5.3158e-04  1.0864e-05  1.4247e-05  6.6997e-06  0:02:01 1381
   620  1.1225e-05  5.4875e-05  1.0779e-05  4.8540e-04  1.1170e-05  1.4131e-05  6.6547e-06  0:01:37 1380
   621  1.1767e-05  5.4648e-05  1.0415e-05  4.4310e-04  1.1711e-05  1.4017e-05  6.6130e-06  0:01:18 1379
   622  1.2477e-05  5.4449e-05  1.0055e-05  4.0575e-04  1.2422e-05  1.3901e-05  6.5677e-06  0:01:02 1378
   623  1.3291e-05  5.4261e-05  9.7021e-06  3.7277e-04  1.3238e-05  1.3782e-05  6.5202e-06  0:00:50 1377
   624  1.4150e-05  5.4107e-05  9.3605e-06  3.4273e-04  1.4099e-05  1.3663e-05  6.4712e-06  0:05:15 1376
[...]
  1838  1.6268e-09  8.5345e-09  1.6489e-09  8.8204e-08  1.6177e-09  2.0071e-09  9.5398e-10  0:00:25  162
  1839  1.6152e-09  8.4729e-09  1.6370e-09  8.7561e-08  1.6061e-09  1.9926e-09  9.4709e-10  0:00:20  161
  1840  1.6036e-09  8.4118e-09  1.6252e-09  8.6922e-08  1.5946e-09  1.9782e-09  9.4026e-10  0:00:16  160
  1841  1.5921e-09  8.3511e-09  1.6134e-09  8.6292e-08  1.5831e-09  1.9640e-09  9.3348e-10  0:00:13  159
  1842  1.5806e-09  8.2908e-09  1.6018e-09  8.5669e-08  1.5718e-09  1.9498e-09  9.2674e-10  0:00:42  158
  1843  1.5693e-09  8.2309e-09  1.5903e-09  8.5054e-08  1.5605e-09  1.9357e-09  9.2005e-10  0:00:33  157
  1844  1.5580e-09  8.1715e-09  1.5788e-09  8.4441e-08  1.5493e-09  1.9217e-09  9.1341e-10  0:00:26  156
  1845  1.5468e-09  8.1126e-09  1.5674e-09  8.3830e-08  1.5381e-09  1.9079e-09  9.0682e-10  0:00:21  155
  1846  1.5357e-09  8.0540e-09  1.5561e-09  8.3227e-08  1.5271e-09  1.8941e-09  9.0028e-10  0:00:17  154
  1847  1.5246e-09  7.9959e-09  1.5449e-09  8.2632e-08  1.5161e-09  1.8804e-09  8.9378e-10  0:00:13  153
  1848  1.5136e-09  7.9382e-09  1.5338e-09  8.2037e-08  1.5051e-09  1.8668e-09  8.8733e-10  0:00:11  152

  iter  continuity  x-velocity  y-velocity  z-velocity      energy           k       omega     time/iter
  1849  1.5027e-09  7.8809e-09  1.5227e-09  8.1446e-08  1.4943e-09  1.8534e-09  8.8092e-10  0:00:39  151
  1850  1.4919e-09  7.8240e-09  1.5118e-09  8.0860e-08  1.4835e-09  1.8400e-09  8.7456e-10  0:00:31  150
  1851  1.4811e-09  7.7675e-09  1.5009e-09  8.0280e-08  1.4728e-09  1.8267e-09  8.6825e-10  0:00:24  149
  1852  1.4704e-09  7.7114e-09  1.4901e-09  7.9698e-08  1.4622e-09  1.8135e-09  8.6198e-10  0:00:19  148
  1853  1.4598e-09  7.6558e-09  1.4794e-09  7.9126e-08  1.4516e-09  1.8004e-09  8.5576e-10  0:00:15  147
  1854  1.4493e-09  7.6005e-09  1.4687e-09  7.8558e-08  1.4412e-09  1.7874e-09  8.4958e-10  0:00:12  146
  1855  1.4388e-09  7.5456e-09  1.4582e-09  7.7992e-08  1.4308e-09  1.7745e-09  8.4345e-10  0:00:39  145
  1856  1.4284e-09  7.4912e-09  1.4477e-09  7.7433e-08  1.4204e-09  1.7617e-09  8.3736e-10  0:00:31  144
  1857  1.4181e-09  7.4371e-09  1.4373e-09  7.6877e-08  1.4102e-09  1.7490e-09  8.3131e-10  0:00:24  143
  1858  1.4079e-09  7.3834e-09  1.4270e-09  7.6325e-08  1.4000e-09  1.7363e-09  8.2531e-10  0:00:19  142
  1859  1.3977e-09  7.3301e-09  1.4167e-09  7.5779e-08  1.3899e-09  1.7238e-09  8.1935e-10  0:00:15  141

  iter  continuity  x-velocity  y-velocity  z-velocity      energy           k       omega     time/iter
  1860  1.3876e-09  7.2772e-09  1.4065e-09  7.5231e-08  1.3798e-09  1.7113e-09  8.1343e-10  0:00:12  140
  1861  1.3776e-09  7.2246e-09  1.3964e-09  7.4693e-08  1.3699e-09  1.6990e-09  8.0756e-10  0:00:38  139
  1862  1.3676e-09  7.1724e-09  1.3864e-09  7.4157e-08  1.3600e-09  1.6867e-09  8.0173e-10  0:00:30  138
  1863  1.3577e-09  7.1206e-09  1.3765e-09  7.3626e-08  1.3501e-09  1.6745e-09  7.9594e-10  0:00:24  137
  1864  1.3479e-09  7.0692e-09  1.3666e-09  7.3096e-08  1.3404e-09  1.6624e-09  7.9019e-10  0:00:19  136
  1865  1.3382e-09  7.0182e-09  1.3568e-09  7.2571e-08  1.3307e-09  1.6504e-09  7.8449e-10  0:00:15  135
  1866  1.3285e-09  6.9675e-09  1.3470e-09  7.2049e-08  1.3211e-09  1.6385e-09  7.7882e-10  0:00:39  134
  1867  1.3190e-09  6.9172e-09  1.3374e-09  7.1531e-08  1.3116e-09  1.6267e-09  7.7320e-10  0:00:31  133
  1868  1.3094e-09  6.8672e-09  1.3278e-09  7.1015e-08  1.3021e-09  1.6149e-09  7.6761e-10  0:00:24  132
  1869  1.3000e-09  6.8176e-09  1.3182e-09  7.0502e-08  1.2927e-09  1.6033e-09  7.6207e-10  0:00:19  131
  1870  1.2906e-09  6.7683e-09  1.3088e-09  6.9992e-08  1.2834e-09  1.5917e-09  7.5656e-10  0:00:15  130

  iter  continuity  x-velocity  y-velocity  z-velocity      energy           k       omega     time/iter
  1871  1.2813e-09  6.7195e-09  1.2994e-09  6.9486e-08  1.2741e-09  1.5802e-09  7.5110e-10  0:00:12  129
  1872  1.2721e-09  6.6709e-09  1.2901e-09  6.8985e-08  1.2650e-09  1.5688e-09  7.4568e-10  0:00:35  128
  1873  1.2629e-09  6.6227e-09  1.2808e-09  6.8486e-08  1.2558e-09  1.5574e-09  7.4029e-10  0:00:28  127
  1874  1.2538e-09  6.5749e-09  1.2716e-09  6.7992e-08  1.2468e-09  1.5462e-09  7.3494e-10  0:00:22  126
  1875  1.2448e-09  6.5274e-09  1.2625e-09  6.7498e-08  1.2378e-09  1.5350e-09  7.2964e-10  0:00:18  125
  1876  1.2358e-09  6.4802e-09  1.2534e-09  6.7013e-08  1.2289e-09  1.5239e-09  7.2437e-10  0:00:14  124
  1877  1.2270e-09  6.4334e-09  1.2444e-09  6.6527e-08  1.2201e-09  1.5129e-09  7.1914e-10  0:00:11  123
  1878  1.2181e-09  6.3869e-09  1.2354e-09  6.6043e-08  1.2113e-09  1.5020e-09  7.1394e-10  0:00:33  122
  1879  1.2094e-09  6.3408e-09  1.2266e-09  6.5562e-08  1.2026e-09  1.4911e-09  7.0879e-10  0:00:26  121
  1880  1.2007e-09  6.2950e-09  1.2177e-09  6.5085e-08  1.1940e-09  1.4804e-09  7.0367e-10  0:00:21  120
  1881  1.1921e-09  6.2495e-09  1.2090e-09  6.4612e-08  1.1854e-09  1.4697e-09  6.9859e-10  0:00:17  119

  iter  continuity  x-velocity  y-velocity  z-velocity      energy           k       omega     time/iter
  1882  1.1835e-09  6.2044e-09  1.2003e-09  6.4143e-08  1.1769e-09  1.4590e-09  6.9354e-10  0:00:13  118
  1883  1.1750e-09  6.1595e-09  1.1916e-09  6.3677e-08  1.1684e-09  1.4485e-09  6.8853e-10  0:00:10  117
  1884  1.1666e-09  6.1150e-09  1.1831e-09  6.3210e-08  1.1601e-09  1.4380e-09  6.8356e-10  0:00:08  116
  1885  1.1582e-09  6.0709e-09  1.1745e-09  6.2754e-08  1.1517e-09  1.4277e-09  6.7862e-10  0:00:30  115
  1886  1.1499e-09  6.0270e-09  1.1661e-09  6.2299e-08  1.1435e-09  1.4173e-09  6.7372e-10  0:00:23  114
  1887  1.1417e-09  5.9835e-09  1.1577e-09  6.1850e-08  1.1353e-09  1.4071e-09  6.6886e-10  0:00:19  113
  1888  1.1335e-09  5.9402e-09  1.1493e-09  6.1399e-08  1.1271e-09  1.3969e-09  6.6403e-10  0:00:15  112
  1889  1.1254e-09  5.8973e-09  1.1411e-09  6.0954e-08  1.1191e-09  1.3868e-09  6.5923e-10  0:00:12  111
  1890  1.1173e-09  5.8547e-09  1.1328e-09  6.0510e-08  1.1110e-09  1.3768e-09  6.5447e-10  0:00:09  110
  1891  1.1093e-09  5.8124e-09  1.1247e-09  6.0066e-08  1.1031e-09  1.3669e-09  6.4974e-10  0:00:07  109
  1892  1.1013e-09  5.7705e-09  1.1166e-09  5.9629e-08  1.0952e-09  1.3570e-09  6.4505e-10  0:00:27  108

  iter  continuity  x-velocity  y-velocity  z-velocity      energy           k       omega     time/iter
  1893  1.0934e-09  5.7288e-09  1.1085e-09  5.9200e-08  1.0873e-09  1.3472e-09  6.4039e-10  0:00:22  107
  1894  1.0856e-09  5.6874e-09  1.1005e-09  5.8765e-08  1.0795e-09  1.3374e-09  6.3577e-10  0:00:17  106
  1895  1.0778e-09  5.6463e-09  1.0926e-09  5.8337e-08  1.0718e-09  1.3278e-09  6.3117e-10  0:00:14  105
  1896  1.0701e-09  5.6055e-09  1.0847e-09  5.7911e-08  1.0641e-09  1.3182e-09  6.2662e-10  0:00:11  104
  1897  1.0624e-09  5.5651e-09  1.0769e-09  5.7487e-08  1.0564e-09  1.3087e-09  6.2209e-10  0:00:09  103
  1898  1.0548e-09  5.5249e-09  1.0691e-09  5.7069e-08  1.0488e-09  1.2992e-09  6.1760e-10  0:00:27  102
  1899  1.0472e-09  5.4850e-09  1.0614e-09  5.6652e-08  1.0413e-09  1.2898e-09  6.1313e-10  0:00:22  101
  1900  1.0397e-09  5.4454e-09  1.0537e-09  5.6237e-08  1.0338e-09  1.2805e-09  6.0870e-10  0:00:17  100
  1901  1.0322e-09  5.4060e-09  1.0461e-09  5.5827e-08  1.0264e-09  1.2712e-09  6.0431e-10  0:00:14   99
  1902  1.0248e-09  5.3670e-09  1.0386e-09  5.5418e-08  1.0190e-09  1.2621e-09  5.9994e-10  0:00:11   98
  1903  1.0174e-09  5.3282e-09  1.0311e-09  5.5013e-08  1.0117e-09  1.2529e-09  5.9561e-10  0:00:08   97

  iter  continuity  x-velocity  y-velocity  z-velocity      energy           k       omega     time/iter
  1904  1.0101e-09  5.2897e-09  1.0237e-09  5.4612e-08  1.0044e-09  1.2439e-09  5.9130e-10  0:00:07   96
  1905  1.0028e-09  5.2515e-09  1.0163e-09  5.4215e-08  9.9719e-10  1.2349e-09  5.8703e-10  0:00:24   95
  1906  9.9558e-10  5.2136e-09  1.0090e-09  5.3822e-08  9.9001e-10  1.2260e-09  5.8279e-10  0:00:19   94
  1907  9.8841e-10  5.1760e-09  1.0017e-09  5.3431e-08  9.8288e-10  1.2171e-09  5.7858e-10  0:00:15   93
  1908  9.8129e-10  5.1386e-09  9.9447e-10  5.3045e-08  9.7580e-10  1.2083e-09  5.7440e-10  0:00:12   92
  1909  9.7422e-10  5.1015e-09  9.8730e-10  5.2659e-08  9.6876e-10  1.1996e-09  5.7025e-10  0:00:10   91
  1910  9.6719e-10  5.0646e-09  9.8019e-10  5.2278e-08  9.6178e-10  1.1909e-09  5.6613e-10  0:00:08   90
  1911  9.6022e-10  5.0280e-09  9.7313e-10  5.1902e-08  9.5484e-10  1.1823e-09  5.6203e-10  0:00:24   89
  1912  9.5329e-10  4.9917e-09  9.6612e-10  5.1527e-08  9.4795e-10  1.1737e-09  5.5797e-10  0:00:19   88
  1913  9.4641e-10  4.9557e-09  9.5916e-10  5.1156e-08  9.4111e-10  1.1653e-09  5.5394e-10  0:00:15   87
  1914  9.3957e-10  4.9199e-09  9.5225e-10  5.0791e-08  9.3431e-10  1.1568e-09  5.4994e-10  0:00:12   86

  iter  continuity  x-velocity  y-velocity  z-velocity      energy           k       omega     time/iter
  1915  9.3279e-10  4.8843e-09  9.4539e-10  5.0428e-08  9.2756e-10  1.1485e-09  5.4596e-10  0:00:09   85
  1916  9.2605e-10  4.8491e-09  9.3858e-10  5.0066e-08  9.2086e-10  1.1402e-09  5.4201e-10  0:00:07   84
  1917  9.1936e-10  4.8140e-09  9.3183e-10  4.9702e-08  9.1421e-10  1.1319e-09  5.3810e-10  0:00:22   83
  1918  9.1271e-10  4.7793e-09  9.2512e-10  4.9344e-08  9.0760e-10  1.1237e-09  5.3421e-10  0:00:18   82
  1919  9.0612e-10  4.7447e-09  9.1846e-10  4.8987e-08  9.0104e-10  1.1156e-09  5.3034e-10  0:00:14   81
  1920  8.9957e-10  4.7105e-09  9.1185e-10  4.8636e-08  8.9453e-10  1.1076e-09  5.2651e-10  0:00:11   80
  1921  8.9306e-10  4.6764e-09  9.0529e-10  4.8282e-08  8.8806e-10  1.0996e-09  5.2270e-10  0:00:09   79
  1922  8.8661e-10  4.6426e-09  8.9877e-10  4.7931e-08  8.8164e-10  1.0916e-09  5.1893e-10  0:00:07   78
  1923  8.8020e-10  4.6091e-09  8.9230e-10  4.7584e-08  8.7527e-10  1.0837e-09  5.1517e-10  0:00:21   77
  1924  8.7384e-10  4.5758e-09  8.8588e-10  4.7244e-08  8.6894e-10  1.0759e-09  5.1145e-10  0:00:16   76
  1925  8.6752e-10  4.5427e-09  8.7951e-10  4.6904e-08  8.6266e-10  1.0681e-09  5.0775e-10  0:00:13   75

  iter  continuity  x-velocity  y-velocity  z-velocity      energy           k       omega     time/iter
  1926  8.6125e-10  4.5099e-09  8.7318e-10  4.6564e-08  8.5642e-10  1.0604e-09  5.0408e-10  0:00:10   74
  1927  8.5502e-10  4.4773e-09  8.6689e-10  4.6227e-08  8.5023e-10  1.0527e-09  5.0044e-10  0:00:08   73
  1928  8.4884e-10  4.4450e-09  8.6065e-10  4.5889e-08  8.4409e-10  1.0451e-09  4.9682e-10  0:00:06   72
  1929  8.4271e-10  4.4128e-09  8.5446e-10  4.5557e-08  8.3799e-10  1.0376e-09  4.9323e-10  0:00:05   71
  1930  8.3662e-10  4.3809e-09  8.4831e-10  4.5226e-08  8.3194e-10  1.0301e-09  4.8966e-10  0:00:18   70
  1931  8.3058e-10  4.3493e-09  8.4220e-10  4.4898e-08  8.2593e-10  1.0226e-09  4.8612e-10  0:00:14   69
  1932  8.2458e-10  4.3179e-09  8.3614e-10  4.4572e-08  8.1996e-10  1.0152e-09  4.8261e-10  0:00:11   68
  1933  8.1863e-10  4.2866e-09  8.3012e-10  4.4251e-08  8.1404e-10  1.0079e-09  4.7912e-10  0:00:09   67
  1934  8.1272e-10  4.2557e-09  8.2414e-10  4.3929e-08  8.0817e-10  1.0006e-09  4.7565e-10  0:00:07   66
  1935  8.0685e-10  4.2249e-09  8.1820e-10  4.3611e-08  8.0233e-10  9.9335e-10  4.7222e-10  0:00:05   65
  1936  8.0103e-10  4.1944e-09  8.1231e-10  4.3292e-08  7.9655e-10  9.8617e-10  4.6880e-10  0:00:17   64

  iter  continuity  x-velocity  y-velocity  z-velocity      energy           k       omega     time/iter
  1937  7.9525e-10  4.1641e-09  8.0645e-10  4.2979e-08  7.9080e-10  9.7904e-10  4.6541e-10  0:00:13   63
  1938  7.8952e-10  4.1340e-09  8.0064e-10  4.2668e-08  7.8510e-10  9.7197e-10  4.6205e-10  0:00:11   62
  1939  7.8383e-10  4.1041e-09  7.9487e-10  4.2358e-08  7.7944e-10  9.6494e-10  4.5871e-10  0:00:08   61
  1940  7.7817e-10  4.0744e-09  7.8914e-10  4.2050e-08  7.7382e-10  9.5796e-10  4.5539e-10  0:00:07   60
  1941  7.7257e-10  4.0450e-09  7.8345e-10  4.1744e-08  7.6824e-10  9.5104e-10  4.5210e-10  0:00:05   59
  1942  7.6700e-10  4.0157e-09  7.7780e-10  4.1445e-08  7.6270e-10  9.4416e-10  4.4883e-10  0:00:16   58
  1943  7.6147e-10  3.9867e-09  7.7218e-10  4.1149e-08  7.5721e-10  9.3734e-10  4.4559e-10  0:00:12   57
  1944  7.5599e-10  3.9579e-09  7.6661e-10  4.0848e-08  7.5175e-10  9.3056e-10  4.4237e-10  0:00:10   56
  1945  7.5054e-10  3.9293e-09  7.6108e-10  4.0551e-08  7.4634e-10  9.2383e-10  4.3917e-10  0:00:08   55
  1946  7.4514e-10  3.9009e-09  7.5558e-10  4.0258e-08  7.4096e-10  9.1715e-10  4.3599e-10  0:00:06   54
  1947  7.3977e-10  3.8727e-09  7.5013e-10  3.9963e-08  7.3563e-10  9.1052e-10  4.3284e-10  0:00:05   53

  iter  continuity  x-velocity  y-velocity  z-velocity      energy           k       omega     time/iter
  1948  7.3444e-10  3.8447e-09  7.4471e-10  3.9673e-08  7.3033e-10  9.0394e-10  4.2971e-10  0:00:14   52
  1949  7.2915e-10  3.8169e-09  7.3933e-10  3.9381e-08  7.2507e-10  8.9741e-10  4.2661e-10  0:00:11   51
  1950  7.2390e-10  3.7893e-09  7.3399e-10  3.9095e-08  7.1985e-10  8.9092e-10  4.2352e-10  0:00:09   50
  1951  7.1869e-10  3.7619e-09  7.2869e-10  3.8811e-08  7.1466e-10  8.8448e-10  4.2046e-10  0:00:07   49
  1952  7.1351e-10  3.7348e-09  7.2342e-10  3.8528e-08  7.0952e-10  8.7808e-10  4.1742e-10  0:00:05   48
  1953  7.0837e-10  3.7078e-09  7.1819e-10  3.8247e-08  7.0441e-10  8.7173e-10  4.1440e-10  0:00:04   47
  1954  7.0327e-10  3.6810e-09  7.1300e-10  3.7967e-08  6.9933e-10  8.6543e-10  4.1141e-10  0:00:12   46
  1955  6.9821e-10  3.6544e-09  7.0785e-10  3.7692e-08  6.9430e-10  8.5918e-10  4.0843e-10  0:00:10   45
  1956  6.9318e-10  3.6280e-09  7.0273e-10  3.7413e-08  6.8929e-10  8.5296e-10  4.0548e-10  0:00:08   44
  1957  6.8818e-10  3.6017e-09  6.9765e-10  3.7139e-08  6.8433e-10  8.4680e-10  4.0255e-10  0:00:06   43
  1958  6.8322e-10  3.5757e-09  6.9261e-10  3.6870e-08  6.7939e-10  8.4067e-10  3.9964e-10  0:00:05   42

  iter  continuity  x-velocity  y-velocity  z-velocity      energy           k       omega     time/iter
  1959  6.7829e-10  3.5499e-09  6.8760e-10  3.6596e-08  6.7449e-10  8.3460e-10  3.9675e-10  0:00:04   41
  1960  6.7340e-10  3.5242e-09  6.8263e-10  3.6329e-08  6.6963e-10  8.2856e-10  3.9388e-10  0:00:11   40
  1961  6.6854e-10  3.4988e-09  6.7769e-10  3.6062e-08  6.6480e-10  8.2257e-10  3.9104e-10  0:00:08   39
  1962  6.6372e-10  3.4735e-09  6.7279e-10  3.5797e-08  6.6000e-10  8.1662e-10  3.8821e-10  0:00:07   38
  1963  6.5893e-10  3.4484e-09  6.6793e-10  3.5535e-08  6.5524e-10  8.1072e-10  3.8540e-10  0:00:05   37
  1964  6.5417e-10  3.4235e-09  6.6310e-10  3.5278e-08  6.5051e-10  8.0486e-10  3.8262e-10  0:00:04   36
  1965  6.4945e-10  3.3987e-09  6.5830e-10  3.5023e-08  6.4581e-10  7.9904e-10  3.7985e-10  0:00:03   35
  1966  6.4476e-10  3.3742e-09  6.5354e-10  3.4770e-08  6.4115e-10  7.9326e-10  3.7710e-10  0:00:09   34
  1967  6.4010e-10  3.3498e-09  6.4882e-10  3.4518e-08  6.3652e-10  7.8753e-10  3.7438e-10  0:00:07   33
  1968  6.3547e-10  3.3256e-09  6.4413e-10  3.4266e-08  6.3192e-10  7.8183e-10  3.7167e-10  0:00:06   32
  1969  6.3088e-10  3.3016e-09  6.3947e-10  3.4018e-08  6.2735e-10  7.7618e-10  3.6898e-10  0:00:04   31

  iter  continuity  x-velocity  y-velocity  z-velocity      energy           k       omega     time/iter
  1970  6.2632e-10  3.2777e-09  6.3485e-10  3.3772e-08  6.2281e-10  7.7057e-10  3.6632e-10  0:00:03   30
  1971  6.2179e-10  3.2540e-09  6.3026e-10  3.3529e-08  6.1831e-10  7.6500e-10  3.6367e-10  0:00:08   29
  1972  6.1729e-10  3.2305e-09  6.2571e-10  3.3291e-08  6.1383e-10  7.5947e-10  3.6104e-10  0:00:06   28
  1973  6.1282e-10  3.2072e-09  6.2119e-10  3.3050e-08  6.0939e-10  7.5398e-10  3.5843e-10  0:00:05   27
  1974  6.0839e-10  3.1840e-09  6.1670e-10  3.2817e-08  6.0498e-10  7.4853e-10  3.5583e-10  0:00:04   26
  1975  6.0398e-10  3.1610e-09  6.1224e-10  3.2581e-08  6.0060e-10  7.4311e-10  3.5326e-10  0:00:08   25
  1976  5.9961e-10  3.1381e-09  6.0782e-10  3.2347e-08  5.9625e-10  7.3774e-10  3.5071e-10  0:00:06   24
  1977  5.9526e-10  3.1155e-09  6.0343e-10  3.2112e-08  5.9193e-10  7.3241e-10  3.4817e-10  0:00:05   23
  1978  5.9095e-10  3.0929e-09  5.9907e-10  3.1882e-08  5.8764e-10  7.2711e-10  3.4565e-10  0:00:04   22
  1979  5.8667e-10  3.0706e-09  5.9474e-10  3.1650e-08  5.8339e-10  7.2186e-10  3.4315e-10  0:00:03   21
  1980  5.8242e-10  3.0484e-09  5.9045e-10  3.1425e-08  5.7916e-10  7.1664e-10  3.4067e-10  0:00:02   20

  iter  continuity  x-velocity  y-velocity  z-velocity      energy           k       omega     time/iter
  1981  5.7820e-10  3.0264e-09  5.8618e-10  3.1201e-08  5.7496e-10  7.1146e-10  3.3821e-10  0:00:05   19
  1982  5.7401e-10  3.0045e-09  5.8195e-10  3.0975e-08  5.7080e-10  7.0631e-10  3.3576e-10  0:00:04   18
  1983  5.6985e-10  2.9828e-09  5.7775e-10  3.0753e-08  5.6666e-10  7.0121e-10  3.3334e-10  0:00:03   17
  1984  5.6572e-10  2.9612e-09  5.7358e-10  3.0534e-08  5.6255e-10  6.9614e-10  3.3093e-10  0:00:02   16
  1985  5.6162e-10  2.9398e-09  5.6943e-10  3.0315e-08  5.5848e-10  6.9111e-10  3.2853e-10  0:00:02   15
  1986  5.5755e-10  2.9186e-09  5.6532e-10  3.0095e-08  5.5443e-10  6.8611e-10  3.2616e-10  0:00:01   14
  1987  5.5351e-10  2.8975e-09  5.6124e-10  2.9877e-08  5.5041e-10  6.8115e-10  3.2380e-10  0:00:04   13
  1988  5.4950e-10  2.8765e-09  5.5718e-10  2.9657e-08  5.4643e-10  6.7622e-10  3.2146e-10  0:00:03   12
  1989  5.4552e-10  2.8557e-09  5.5316e-10  2.9445e-08  5.4247e-10  6.7134e-10  3.1913e-10  0:00:02   11
  1990  5.4157e-10  2.8351e-09  5.4916e-10  2.9233e-08  5.3854e-10  6.6648e-10  3.1682e-10  0:00:01   10
  1991  5.3765e-10  2.8146e-09  5.4520e-10  2.9022e-08  5.3464e-10  6.6166e-10  3.1453e-10  0:00:01    9

  iter  continuity  x-velocity  y-velocity  z-velocity      energy           k       omega     time/iter
  1992  5.3376e-10  2.7943e-09  5.4126e-10  2.8809e-08  5.3077e-10  6.5688e-10  3.1226e-10  0:00:01    8
  1993  5.2989e-10  2.7741e-09  5.3735e-10  2.8599e-08  5.2692e-10  6.5213e-10  3.1000e-10  0:00:01    7
  1994  5.2606e-10  2.7540e-09  5.3347e-10  2.8391e-08  5.2311e-10  6.4742e-10  3.0776e-10  0:00:02    6
  1995  5.2225e-10  2.7341e-09  5.2961e-10  2.8185e-08  5.1932e-10  6.4274e-10  3.0553e-10  0:00:01    5
  1996  5.1847e-10  2.7143e-09  5.2578e-10  2.7981e-08  5.1557e-10  6.3809e-10  3.0333e-10  0:00:01    4
  1997  5.1472e-10  2.6947e-09  5.2198e-10  2.7779e-08  5.1183e-10  6.3348e-10  3.0113e-10  0:00:00    3
  1998  5.1099e-10  2.6752e-09  5.1821e-10  2.7578e-08  5.0813e-10  6.2890e-10  2.9896e-10  0:00:00    2
  1999  5.0730e-10  2.6559e-09  5.1446e-10  2.7376e-08  5.0446e-10  6.2435e-10  2.9679e-10  0:00:00    1
  2000  5.0363e-10  2.6367e-09  5.1074e-10  2.7179e-08  5.0081e-10  6.1984e-10  2.9465e-10  0:00:00    0

> 
adjoint/                parallel/               server/
define/                 parametric-study/       solve/
display/                plot/                   surface/
exit                    preferences/            turbo-workflow/
file/                   print-license-usage     views/
mesh/                   report/

> /file/write-case-data project1
Fast-loading "C:\PROGRA~1\ANSYSI~1\v231\fluent\fluent23.1.0\\addons\afd\lib\hdfio.bin"
Done.

Writing to Engs-30669:"C:\Users\kebl7595\Desktop\CFD\Runs\Viscous\3 degrees\project1.cas.h5" in NODE0 mode and compression level 1 ...
       12996 cells,     1 zone  ...
       43722 faces,     8 zones ...
       17864 nodes,     1 zone  ...
  Done.
Done.

Writing to Engs-30669:"C:\Users\kebl7595\Desktop\CFD\Runs\Viscous\3 degrees\project1.dat.h5" in NODE0 mode and compression level 1 ...
  Writing results.
Done.

> /file/export/ascii "./surface.dat" wing te () no pressure mach-number quit no

Writing "./surface.dat"...

Writing information to ascii file ...
Done.


> /report/forces/wall-forces y -0.052336 0.99863 0 y "Lift"

> /report/forces/wall-forces y 0.99863 0.052336 0 y "Drag"

> /exit

Posting ANSYS Product Improvement Program performance data 
Done.
Auto-Transcript Stop Time:  10:45:18, 21 May 2024 GMT Daylight Time 
Total Transcript Time: 3 Minute 33 Second.
