Auto-Transcript Start Time:  10:15:55, 21 May 2024 GMT Daylight Time 
Current Directory: "C:\Users\kebl7595\Desktop\CFD\Runs\Viscous\finer"

              Welcome to ANSYS Fluent 2023 R1

              Copyright 1987-2023 ANSYS, Inc. All Rights Reserved.
              Unauthorized use, distribution or duplication is prohibited.
              This product is subject to U.S. laws governing export and re-export.
              For full Legal Notice, see documentation.

Build Time: Nov 28 2022 09:52:02 EST  Build Id: 10208  
 
Connected License Server List:	1055@ansyslic.eng.ox.ac.uk

*********************************************
Info: Your license enables 4-way parallel execution.
For faster simulations, please start the application with the appropriate parallel options.
*********************************************


     --------------------------------------------------------------
     This is an academic version of ANSYS FLUENT. Usage of this product
     license is limited to the terms and conditions specified in your ANSYS
     license form, additional terms section.
     --------------------------------------------------------------
Host spawning Node 0 on machine "Engs-30669" (win64).

------------------------------------------------------------------------------------
ID    Hostname    Core  O.S.         PID    Vendor                                 
------------------------------------------------------------------------------------
n0    Engs-30669  1/32  Windows-x64  27956  13th Gen Intel(R) Core(TM) i9-13900    
host  Engs-30669        Windows-x64  9736   13th Gen Intel(R) Core(TM) i9-13900    

MPI Option Selected: intel
------------------------------------------------------------------------------------

Cleanup script file is C:\\Users\\kebl7595\\Desktop\\CFD\\Runs\\Viscous\\finer\\cleanup-fluent-Engs-30669-9736.bat
QA Service Message :
QA Services Agreement Enabled. This application is included in the scope of an ANSYS QA Services Agreement.
Posting ANSYS Product Improvement Program startup data
Done.

Reading journal file C:/Users/kebl7595/Desktop/CFD/Runs/Viscous/finer/project1.jou...

> /file/set-batch-options no no no 

> 
define/                 parametric-study/       solve/
display/                plot/                   surface/
exit                    preferences/            switch-to-meshing-mode
file/                   print-license-usage     turbo-workflow/
mesh/                   report/                 views/
parallel/               server/

> /file/import/cgns/mesh  "./project1.cgns"
Engs-30669 has other FLUENT parallel processes running.                       Process affinity not being set.

Importing "./project1.cgns"

Opening library "C:\\PROGRA~1\\ANSYSI~1\\v231\\fluent\\fluent23.1.0\\vki\\win64\\devtools4.4.6.dll"... done.

Read    80096 nodes
   58800 hexahedral cells, zone  1
   41738 quadrilateral wall faces, zone  2.
  155174 quadrilateral interior faces, zone  3.
     354 quadrilateral interface faces, zone  4.
       6 quadrilateral wall faces, zone  5.

Building...
     mesh
     materials,
     interface,
     domains,
     zones,
	default_exterior-1
	interface-default_subface
	default_interior-1
	default_subface
	default
     parallel,
The automatic selection for flux type has changed to Rhie-Chow: momentum based.

Done.


> 
adjoint/                parallel/               server/
define/                 parametric-study/       solve/
display/                plot/                   surface/
exit                    preferences/            turbo-workflow/
file/                   print-license-usage     views/
mesh/                   report/

> /define/models/solver/density-based-implicit yes

> 
adjoint/                parallel/               server/
define/                 parametric-study/       solve/
display/                plot/                   surface/
exit                    preferences/            turbo-workflow/
file/                   print-license-usage     views/
mesh/                   report/

> /define/models/energy? yes yes invalid command [yes]
yes

> /define/models/viscous/kw-standard? yes

> 
adjoint/                parallel/               server/
define/                 parametric-study/       solve/
display/                plot/                   surface/
exit                    preferences/            turbo-workflow/
file/                   print-license-usage     views/
mesh/                   report/

> /define/materials/change-create air air air is a fluid
yes 
Density
ideal-gas no data required.

no no no no no no

> 
adjoint/                parallel/               server/
define/                 parametric-study/       solve/
display/                plot/                   surface/
exit                    preferences/            turbo-workflow/
file/                   print-license-usage     views/
mesh/                   report/

> /mesh/modify-zones/sep-face-zone-angle 2 90 yes

 19600 faces in contiguous region 0
 1062 faces in contiguous region 1
 1176 faces in contiguous region 2
 19600 faces in contiguous region 3
 300 faces in contiguous region 4
 Separates zone 2 into 5 zone(s).
Updating new zone information...
   created new zone default_subface:010 from default_subface
   created new zone default_subface:009 from default_subface
   created new zone default_subface:008 from default_subface
   created new zone default_subface:007 from default_subface
done.

> 
adjoint/                parallel/               server/
define/                 parametric-study/       solve/
display/                plot/                   surface/
exit                    preferences/            turbo-workflow/
file/                   print-license-usage     views/
mesh/                   report/

> /define/boundary-conditions/zone-name  5   te

> /define/boundary-conditions/zone-name  7 wing

> /define/boundary-conditions/zone-name  2 sym1

> /define/boundary-conditions/zone-name  9 sym2

> 
adjoint/                parallel/               server/
define/                 parametric-study/       solve/
display/                plot/                   surface/
exit                    preferences/            turbo-workflow/
file/                   print-license-usage     views/
mesh/                   report/

> /define/boundary-conditions/zone-name  8 far1

> /define/boundary-conditions/zone-name 10 far2

> 
adjoint/                parallel/               server/
define/                 parametric-study/       solve/
display/                plot/                   surface/
exit                    preferences/            turbo-workflow/
file/                   print-license-usage     views/
mesh/                   report/

> /define/boundary-conditions/zone-type  8 pressure-far-field

> /define/boundary-conditions/zone-type 10 pressure-far-field

> /define/boundary-conditions/zone-type  2 symmetry

> /define/boundary-conditions/zone-type  9 symmetry

> 
adjoint/                parallel/               server/
define/                 parametric-study/       solve/
display/                plot/                   surface/
exit                    preferences/            turbo-workflow/
file/                   print-license-usage     views/
mesh/                   report/

> /define/boundary-conditions/pressure-far-field (far2 far1)
far1 no 0 no 0.1 no 300 yes no 0.984808 no 0.173648 no 0. no yes 5 0.02

> /define/boundary-conditions/pressure-far-field (far2 far1)
far2 no 0 no 0.1 no 300 yes no 0.984808 no 0.173648 no 0. no yes 5 0.02

> 
adjoint/                parallel/               server/
define/                 parametric-study/       solve/
display/                plot/                   surface/
exit                    preferences/            turbo-workflow/
file/                   print-license-usage     views/
mesh/                   report/

> /solve/initialize/compute-defaults/pressure-far-field (far2 far1)
far1

> /solve/initialize/initialize-flow

> 
adjoint/                parallel/               server/
define/                 parametric-study/       solve/
display/                plot/                   surface/
exit                    preferences/            turbo-workflow/
file/                   print-license-usage     views/
mesh/                   report/

> /solve/monitors/residual/convergence-criteria 1.e-9 1.e-9 1.e-9 1.e-9 1.e-9 1.e-9 1.e-9

> /solve/iterate 2000

  iter  continuity  x-velocity  y-velocity  z-velocity      energy           k       omega     time/iter
     1  1.0000e+00  1.0000e+00  1.0000e+00  1.0000e+00  1.0000e+00  8.0552e-02  1.8769e-01  0:33:19 1999
     2  5.0047e-01  2.5991e-01  2.7757e-01  1.0000e+00  5.0341e-01  6.4907e-02  5.8347e-02  0:26:38 1998
     3  2.7132e-01  1.5511e-01  1.4763e-01  7.0628e-01  2.7200e-01  5.4077e-02  4.4335e-02  0:27:57 1997
     4  2.3147e-01  1.0592e-01  1.0201e-01  6.3379e-01  2.3243e-01  4.6164e-02  4.0553e-02  0:22:21 1996
     5  1.8133e-01  8.6143e-02  8.1128e-02  6.4199e-01  1.8221e-01  4.0135e-02  3.6044e-02  0:24:32 1995
     6  1.3812e-01  7.3224e-02  6.5749e-02  5.3671e-01  1.3873e-01  3.5385e-02  3.1719e-02  0:19:37 1994
     7  1.0887e-01  6.1214e-02  5.3333e-02  4.4706e-01  1.0925e-01  3.1566e-02  2.8256e-02  0:22:19 1993
     8  9.2090e-02  5.0922e-02  4.4004e-02  3.9557e-01  9.2354e-02  2.8569e-02  2.5731e-02  0:17:51 1992
     9  8.1222e-02  4.3249e-02  3.7429e-02  3.6630e-01  8.1449e-02  2.6178e-02  2.3572e-02  0:14:16 1991
    10  7.2843e-02  3.7745e-02  3.2610e-02  3.4363e-01  7.3060e-02  2.4167e-02  2.1731e-02  0:18:03 1990
    11  6.6836e-02  3.3261e-02  2.8815e-02  3.2612e-01  6.7073e-02  2.2425e-02  2.0138e-02  0:14:26 1989

  iter  continuity  x-velocity  y-velocity  z-velocity      energy           k       omega     time/iter
    12  6.3083e-02  2.9483e-02  2.5702e-02  3.1339e-01  6.3368e-02  2.0877e-02  1.8766e-02  0:18:10 1988
    13  6.0891e-02  2.6324e-02  2.3079e-02  3.0262e-01  6.1233e-02  1.9493e-02  1.7580e-02  0:14:31 1987
    14  5.9793e-02  2.3679e-02  2.0833e-02  2.9270e-01  6.0192e-02  1.8253e-02  1.6553e-02  0:18:14 1986
    15  5.9716e-02  2.1424e-02  1.8909e-02  2.8436e-01  6.0170e-02  1.7136e-02  1.5667e-02  0:14:35 1985
    16  6.0607e-02  1.9477e-02  1.7270e-02  2.7881e-01  6.1119e-02  1.6122e-02  1.4913e-02  0:18:16 1984
    17  6.2281e-02  1.7783e-02  1.5881e-02  2.7612e-01  6.2852e-02  1.5201e-02  1.4276e-02  0:14:37 1983
    18  6.4397e-02  1.6301e-02  1.4707e-02  2.7576e-01  6.5025e-02  1.4367e-02  1.3736e-02  0:11:41 1982
    19  6.6452e-02  1.4992e-02  1.3722e-02  2.7708e-01  6.7127e-02  1.3618e-02  1.3261e-02  0:15:57 1981
    20  6.8163e-02  1.3832e-02  1.2893e-02  2.8073e-01  6.8873e-02  1.2935e-02  1.2850e-02  0:12:45 1980
    21  6.9520e-02  1.2800e-02  1.2198e-02  2.8773e-01  7.0255e-02  1.2310e-02  1.2494e-02  0:16:47 1979
    22  7.0646e-02  1.1884e-02  1.1612e-02  2.9899e-01  7.1399e-02  1.1738e-02  1.2170e-02  0:13:26 1978

  iter  continuity  x-velocity  y-velocity  z-velocity      energy           k       omega     time/iter
    23  7.1756e-02  1.1076e-02  1.1115e-02  3.1470e-01  7.2527e-02  1.1212e-02  1.1871e-02  0:17:20 1977
    24  7.3035e-02  1.0366e-02  1.0696e-02  3.3346e-01  7.3827e-02  1.0726e-02  1.1598e-02  0:13:51 1976
    25  7.4233e-02  9.7168e-03  1.0346e-02  3.5330e-01  7.5041e-02  1.0277e-02  1.1339e-02  0:11:05 1975
    26  7.4897e-02  9.1484e-03  1.0053e-02  3.7354e-01  7.5710e-02  9.8681e-03  1.1083e-02  0:15:26 1974
    27  7.5500e-02  8.6570e-03  9.8092e-03  3.9329e-01  7.6321e-02  9.4925e-03  1.0829e-02  0:12:21 1973
    28  7.5823e-02  8.2149e-03  9.6045e-03  4.1092e-01  7.6645e-02  9.1454e-03  1.0576e-02  0:16:27 1972
    29  7.6242e-02  7.7993e-03  9.4641e-03  4.2562e-01  7.7066e-02  8.8220e-03  1.0320e-02  0:13:09 1971
    30  7.6611e-02  7.4341e-03  9.3476e-03  4.3640e-01  7.7438e-02  8.5192e-03  1.0064e-02  0:17:05 1970
    31  7.6810e-02  7.1164e-03  9.2672e-03  4.4221e-01  7.7636e-02  8.2375e-03  9.8052e-03  0:13:39 1969
    32  7.7015e-02  6.8144e-03  9.2371e-03  4.4374e-01  7.7843e-02  7.9754e-03  9.5390e-03  0:10:55 1968
    33  7.7109e-02  6.5557e-03  9.2253e-03  4.4109e-01  7.7935e-02  7.7299e-03  9.2768e-03  0:15:17 1967

  iter  continuity  x-velocity  y-velocity  z-velocity      energy           k       omega     time/iter
    34  7.7178e-02  6.3072e-03  9.2343e-03  4.3266e-01  7.8005e-02  7.5005e-03  9.0055e-03  0:12:13 1966
    35  7.7126e-02  6.1017e-03  9.2630e-03  4.1882e-01  7.7949e-02  7.2867e-03  8.7474e-03  0:16:19 1965
    36  7.7001e-02  5.8904e-03  9.3041e-03  4.0083e-01  7.7821e-02  7.0872e-03  8.4648e-03  0:13:03 1964
    37  7.6829e-02  5.7123e-03  9.3492e-03  3.7975e-01  7.7645e-02  6.9017e-03  8.1825e-03  0:16:59 1963
    38  7.6571e-02  5.5482e-03  9.3903e-03  3.5693e-01  7.7383e-02  6.7288e-03  7.9089e-03  0:13:35 1962
    39  7.6279e-02  5.3742e-03  9.4279e-03  3.3239e-01  7.7085e-02  6.5631e-03  7.6527e-03  0:10:51 1961
    40  7.5931e-02  5.2398e-03  9.4569e-03  3.0751e-01  7.6732e-02  6.4038e-03  7.3982e-03  0:15:13 1960
    41  7.5498e-02  5.1076e-03  9.4748e-03  2.8422e-01  7.6292e-02  6.2503e-03  7.1721e-03  0:12:10 1959
    42  7.5046e-02  4.9606e-03  9.4847e-03  2.6393e-01  7.5833e-02  6.1056e-03  6.9691e-03  0:16:15 1958
    43  7.4544e-02  4.8529e-03  9.4836e-03  2.4855e-01  7.5324e-02  5.9697e-03  6.7251e-03  0:13:00 1957
    44  7.3950e-02  4.7465e-03  9.4692e-03  2.3922e-01  7.4721e-02  5.8430e-03  6.5514e-03  0:16:55 1956

  iter  continuity  x-velocity  y-velocity  z-velocity      energy           k       omega     time/iter
    45  7.3302e-02  4.6325e-03  9.4349e-03  2.3699e-01  7.4063e-02  5.7219e-03  6.4216e-03  0:13:31 1955
    46  7.2611e-02  4.5244e-03  9.4009e-03  2.4179e-01  7.3363e-02  5.6059e-03  6.2759e-03  0:17:20 1954
    47  7.1837e-02  4.4245e-03  9.3566e-03  2.5298e-01  7.2579e-02  5.4926e-03  6.1667e-03  0:13:51 1953
    48  7.1021e-02  4.3296e-03  9.2986e-03  2.6834e-01  7.1751e-02  5.3831e-03  6.0764e-03  0:11:05 1952
    49  7.0144e-02  4.2331e-03  9.2261e-03  2.8543e-01  7.0863e-02  5.2793e-03  6.0079e-03  0:15:22 1951
    50  6.9201e-02  4.1410e-03  9.1512e-03  3.0184e-01  6.9907e-02  5.1810e-03  5.9288e-03  0:12:17 1950
    51  6.8183e-02  4.0518e-03  9.0693e-03  3.1599e-01  6.8877e-02  5.0864e-03  5.8421e-03  0:16:19 1949
    52  6.7082e-02  3.9676e-03  8.9756e-03  3.2680e-01  6.7761e-02  4.9952e-03  5.7841e-03  0:13:03 1948
    53  6.5889e-02  3.8833e-03  8.8675e-03  3.3350e-01  6.6552e-02  4.9079e-03  5.7692e-03  0:16:55 1947
    54  6.4612e-02  3.7924e-03  8.7472e-03  3.3527e-01  6.5258e-02  4.8237e-03  5.6884e-03  0:13:32 1946
    55  6.3268e-02  3.7133e-03  8.6116e-03  3.3254e-01  6.3898e-02  4.7431e-03  5.6251e-03  0:17:18 1945

  iter  continuity  x-velocity  y-velocity  z-velocity      energy           k       omega     time/iter
    56  6.1858e-02  3.6314e-03  8.4650e-03  3.2356e-01  6.2469e-02  4.6654e-03  5.5754e-03  0:13:50 1944
    57  6.0415e-02  3.5498e-03  8.3053e-03  3.0939e-01  6.1008e-02  4.5946e-03  5.5400e-03  0:17:32 1943
    58  5.8958e-02  3.4649e-03  8.1357e-03  2.9834e-01  5.9532e-02  4.5172e-03  5.4984e-03  0:14:01 1942
    59  5.7497e-02  3.3732e-03  7.9562e-03  2.7647e-01  5.8053e-02  4.4434e-03  5.4500e-03  0:11:13 1941
    60  5.6083e-02  3.2916e-03  7.7676e-03  2.6026e-01  5.6622e-02  4.3747e-03  5.3976e-03  0:15:26 1940
    61  5.4678e-02  3.2127e-03  7.5826e-03  2.4199e-01  5.5201e-02  4.3085e-03  5.3405e-03  0:12:20 1939
    62  5.3254e-02  3.1381e-03  7.4095e-03  2.2527e-01  5.3759e-02  4.2440e-03  5.2958e-03  0:16:20 1938
    63  5.1836e-02  3.0695e-03  7.2400e-03  2.1048e-01  5.2324e-02  4.1805e-03  5.2250e-03  0:13:03 1937
    64  5.0440e-02  3.0046e-03  7.0769e-03  1.9764e-01  5.0912e-02  4.1179e-03  5.1565e-03  0:16:54 1936
    65  4.9100e-02  2.9466e-03  6.9202e-03  1.8773e-01  4.9555e-02  4.0578e-03  5.0924e-03  0:13:30 1935
    66  4.7826e-02  2.8981e-03  6.7694e-03  1.8168e-01  4.8266e-02  4.0002e-03  5.0449e-03  0:17:15 1934

  iter  continuity  x-velocity  y-velocity  z-velocity      energy           k       omega     time/iter
    67  4.6605e-02  2.8623e-03  6.6273e-03  1.7994e-01  4.7031e-02  3.9439e-03  4.9739e-03  0:13:47 1933
    68  4.5407e-02  2.8344e-03  6.4967e-03  1.7994e-01  4.5818e-02  3.8915e-03  4.9426e-03  0:11:02 1932
    69  4.4218e-02  2.8145e-03  6.3682e-03  1.8356e-01  4.4615e-02  3.8325e-03  4.8951e-03  0:15:15 1931
    70  4.3064e-02  2.7999e-03  6.2391e-03  1.8794e-01  4.3445e-02  3.7763e-03  4.8268e-03  0:12:12 1930
    71  4.1977e-02  2.7886e-03  6.1163e-03  1.9242e-01  4.2346e-02  3.7243e-03  4.7588e-03  0:16:11 1929
    72  4.0918e-02  2.7805e-03  6.0016e-03  1.9620e-01  4.1273e-02  3.6752e-03  4.6898e-03  0:12:56 1928
    73  3.9896e-02  2.7769e-03  5.8911e-03  1.9900e-01  4.0237e-02  3.6275e-03  4.6172e-03  0:16:46 1927
    74  3.8963e-02  2.7749e-03  5.7875e-03  2.0056e-01  3.9293e-02  3.5797e-03  4.5583e-03  0:13:24 1926
    75  3.8074e-02  2.7748e-03  5.6916e-03  2.0060e-01  3.8393e-02  3.5320e-03  4.4892e-03  0:10:43 1925
    76  3.7165e-02  2.7758e-03  5.5994e-03  1.9901e-01  3.7472e-02  3.4841e-03  4.4540e-03  0:14:59 1924
    77  3.6385e-02  2.7777e-03  5.5135e-03  1.9582e-01  3.6682e-02  3.4418e-03  4.4126e-03  0:11:59 1923

  iter  continuity  x-velocity  y-velocity  z-velocity      energy           k       omega     time/iter
    78  3.5698e-02  2.7767e-03  5.4360e-03  1.9129e-01  3.5986e-02  3.3947e-03  4.3740e-03  0:15:59 1922
    79  3.5028e-02  2.7746e-03  5.3622e-03  1.8556e-01  3.5307e-02  3.3527e-03  4.3257e-03  0:12:47 1921
    80  3.4458e-02  2.7736e-03  5.2910e-03  1.7894e-01  3.4730e-02  3.3141e-03  4.2702e-03  0:16:37 1920
    81  3.3913e-02  2.7724e-03  5.2218e-03  1.7157e-01  3.4177e-02  3.2755e-03  4.2224e-03  0:13:17 1919
    82  3.3405e-02  2.7705e-03  5.1547e-03  1.6429e-01  3.3661e-02  3.2372e-03  4.1745e-03  0:17:01 1918
    83  3.2943e-02  2.7675e-03  5.0883e-03  1.5752e-01  3.3193e-02  3.2002e-03  4.1585e-03  0:13:37 1917
    84  3.2522e-02  2.7616e-03  5.0243e-03  1.5143e-01  3.2766e-02  3.1638e-03  4.0767e-03  0:10:53 1916
    85  3.2159e-02  2.7539e-03  4.9615e-03  1.4544e-01  3.2397e-02  3.1294e-03  4.0110e-03  0:15:05 1915
    86  3.1857e-02  2.7413e-03  4.9017e-03  1.4010e-01  3.2091e-02  3.0970e-03  3.9598e-03  0:12:04 1914
    87  3.1610e-02  2.7279e-03  4.8434e-03  1.3587e-01  3.1840e-02  3.0660e-03  3.9147e-03  0:16:01 1913
    88  3.1454e-02  2.7122e-03  4.7869e-03  1.3257e-01  3.1682e-02  3.0364e-03  3.8693e-03  0:12:49 1912

  iter  continuity  x-velocity  y-velocity  z-velocity      energy           k       omega     time/iter
    89  3.1332e-02  2.6931e-03  4.7328e-03  1.3016e-01  3.1558e-02  3.0083e-03  3.8297e-03  0:16:37 1911
    90  3.1286e-02  2.6713e-03  4.6805e-03  1.2874e-01  3.1511e-02  2.9812e-03  3.7595e-03  0:13:17 1910
    91  3.1248e-02  2.6453e-03  4.6299e-03  1.2905e-01  3.1473e-02  2.9552e-03  3.7111e-03  0:16:59 1909
    92  3.1227e-02  2.6166e-03  4.5785e-03  1.2980e-01  3.1452e-02  2.9313e-03  3.6676e-03  0:13:35 1908
    93  3.1237e-02  2.5840e-03  4.5254e-03  1.3150e-01  3.1462e-02  2.9080e-03  3.6302e-03  0:10:52 1907
    94  3.1217e-02  2.5483e-03  4.4692e-03  1.3416e-01  3.1442e-02  2.8841e-03  3.5858e-03  0:15:02 1906
    95  3.1196e-02  2.5109e-03  4.4077e-03  1.3754e-01  3.1421e-02  2.8604e-03  3.5692e-03  0:12:01 1905
    96  3.1184e-02  2.4734e-03  4.3401e-03  1.4148e-01  3.1410e-02  2.8366e-03  3.5140e-03  0:15:58 1904
    97  3.1157e-02  2.4349e-03  4.2685e-03  1.4588e-01  3.1383e-02  2.8120e-03  3.4991e-03  0:12:46 1903
    98  3.1117e-02  2.3966e-03  4.1930e-03  1.5055e-01  3.1343e-02  2.7879e-03  3.4904e-03  0:16:33 1902
    99  3.1080e-02  2.3586e-03  4.1144e-03  1.5651e-01  3.1307e-02  2.7639e-03  3.4289e-03  0:13:14 1901

  iter  continuity  x-velocity  y-velocity  z-velocity      energy           k       omega     time/iter
   100  3.1063e-02  2.3218e-03  4.0327e-03  1.6269e-01  3.1291e-02  2.7389e-03  3.3938e-03  0:10:35 1900
   101  3.1053e-02  2.2862e-03  3.9493e-03  1.6912e-01  3.1282e-02  2.7132e-03  3.3870e-03  0:14:47 1899
   102  3.1041e-02  2.2530e-03  3.8645e-03  1.7518e-01  3.1272e-02  2.6870e-03  3.3648e-03  0:11:49 1898
   103  3.1043e-02  2.2214e-03  3.7795e-03  1.8155e-01  3.1276e-02  2.6596e-03  3.3224e-03  0:15:47 1897
   104  3.1078e-02  2.1911e-03  3.6949e-03  1.8821e-01  3.1314e-02  2.6324e-03  3.3006e-03  0:12:37 1896
   105  3.1129e-02  2.1625e-03  3.6113e-03  1.9422e-01  3.1367e-02  2.6100e-03  3.3052e-03  0:16:24 1895
   106  3.1169e-02  2.1343e-03  3.5306e-03  2.0034e-01  3.1411e-02  2.5780e-03  3.2768e-03  0:13:07 1894
   107  3.1217e-02  2.1071e-03  3.4525e-03  2.0643e-01  3.1462e-02  2.5486e-03  3.2694e-03  0:16:48 1893
   108  3.1306e-02  2.0813e-03  3.3776e-03  2.1247e-01  3.1553e-02  2.5192e-03  3.2173e-03  0:13:26 1892
   109  3.1333e-02  2.0565e-03  3.3076e-03  2.1813e-01  3.1584e-02  2.4891e-03  3.1962e-03  0:10:44 1891
   110  3.1334e-02  2.0337e-03  3.2418e-03  2.2323e-01  3.1587e-02  2.4588e-03  3.1769e-03  0:14:53 1890

  iter  continuity  x-velocity  y-velocity  z-velocity      energy           k       omega     time/iter
   111  3.1349e-02  2.0119e-03  3.1813e-03  2.2747e-01  3.1605e-02  2.4278e-03  3.1693e-03  0:11:54 1889
   112  3.1264e-02  1.9902e-03  3.1266e-03  2.3130e-01  3.1521e-02  2.3962e-03  3.1392e-03  0:15:49 1888
   113  3.1115e-02  1.9684e-03  3.0774e-03  2.3487e-01  3.1373e-02  2.3640e-03  3.1292e-03  0:12:39 1887
   114  3.0951e-02  1.9456e-03  3.0326e-03  2.3785e-01  3.1209e-02  2.3324e-03  3.1398e-03  0:16:24 1886
   115  3.0662e-02  1.9219e-03  2.9930e-03  2.4021e-01  3.0919e-02  2.3010e-03  3.0966e-03  0:13:07 1885
   116  3.0296e-02  1.8966e-03  2.9572e-03  2.4198e-01  3.0550e-02  2.2690e-03  3.1162e-03  0:16:46 1884
   117  2.9922e-02  1.8700e-03  2.9238e-03  2.4330e-01  3.0173e-02  2.2371e-03  3.0581e-03  0:13:24 1883
   118  2.9445e-02  1.8421e-03  2.8937e-03  2.4417e-01  2.9692e-02  2.2043e-03  3.0501e-03  0:10:43 1882
   119  2.8932e-02  1.8132e-03  2.8666e-03  2.4470e-01  2.9175e-02  2.1729e-03  3.0164e-03  0:14:50 1881
   120  2.8461e-02  1.7846e-03  2.8416e-03  2.4492e-01  2.8699e-02  2.1433e-03  2.9886e-03  0:11:52 1880
   121  2.7954e-02  1.7563e-03  2.8210e-03  2.4486e-01  2.8188e-02  2.1157e-03  2.9916e-03  0:15:45 1879

  iter  continuity  x-velocity  y-velocity  z-velocity      energy           k       omega     time/iter
   122  2.7463e-02  1.7295e-03  2.8047e-03  2.4454e-01  2.7692e-02  2.0905e-03  3.0087e-03  0:12:36 1878
   123  2.7061e-02  1.7059e-03  2.7925e-03  2.4396e-01  2.7287e-02  2.0668e-03  2.9627e-03  0:16:20 1877
   124  2.6683e-02  1.6857e-03  2.7853e-03  2.4310e-01  2.6904e-02  2.0440e-03  2.9521e-03  0:13:03 1876
   125  2.6353e-02  1.6692e-03  2.7851e-03  2.4217e-01  2.6571e-02  2.0226e-03  2.9339e-03  0:10:26 1875
   126  2.6126e-02  1.6574e-03  2.7898e-03  2.4113e-01  2.6343e-02  2.0025e-03  2.9053e-03  0:14:36 1874
   127  2.5914e-02  1.6498e-03  2.8008e-03  2.4007e-01  2.6128e-02  1.9838e-03  2.8976e-03  0:11:40 1873
   128  2.5789e-02  1.6461e-03  2.8173e-03  2.3899e-01  2.6002e-02  1.9723e-03  2.8911e-03  0:15:34 1872
   129  2.5705e-02  1.6464e-03  2.8387e-03  2.3802e-01  2.5918e-02  1.9543e-03  2.8972e-03  0:12:27 1871
   130  2.5670e-02  1.6501e-03  2.8639e-03  2.3718e-01  2.5882e-02  1.9385e-03  2.9039e-03  0:16:11 1870
   131  2.5716e-02  1.6560e-03  2.8917e-03  2.3627e-01  2.5928e-02  1.9256e-03  2.8931e-03  0:12:57 1869
   132  2.5745e-02  1.6640e-03  2.9216e-03  2.3536e-01  2.5958e-02  1.9136e-03  2.8586e-03  0:16:35 1868

  iter  continuity  x-velocity  y-velocity  z-velocity      energy           k       omega     time/iter
   133  2.5870e-02  1.6742e-03  2.9504e-03  2.3460e-01  2.6084e-02  1.9022e-03  2.8491e-03  0:13:15 1867
   134  2.5943e-02  1.6859e-03  2.9789e-03  2.3373e-01  2.6157e-02  1.8916e-03  2.8507e-03  0:10:36 1866
   135  2.6069e-02  1.6990e-03  3.0049e-03  2.3291e-01  2.6284e-02  1.8819e-03  2.8007e-03  0:14:41 1865
   136  2.6166e-02  1.7132e-03  3.0281e-03  2.3232e-01  2.6381e-02  1.8724e-03  2.7801e-03  0:11:45 1864
   137  2.6262e-02  1.7279e-03  3.0480e-03  2.3193e-01  2.6477e-02  1.8641e-03  2.7609e-03  0:15:36 1863
   138  2.6341e-02  1.7427e-03  3.0628e-03  2.3169e-01  2.6556e-02  1.8572e-03  2.7390e-03  0:12:28 1862
   139  2.6369e-02  1.7581e-03  3.0730e-03  2.3198e-01  2.6583e-02  1.8514e-03  2.7400e-03  0:16:11 1861
   140  2.6384e-02  1.7741e-03  3.0772e-03  2.3250e-01  2.6597e-02  1.8458e-03  2.7161e-03  0:12:56 1860
   141  2.6315e-02  1.7884e-03  3.0775e-03  2.3310e-01  2.6526e-02  1.8405e-03  2.7153e-03  0:10:21 1859
   142  2.6239e-02  1.8017e-03  3.0739e-03  2.3378e-01  2.6448e-02  1.8358e-03  2.7087e-03  0:14:28 1858
   143  2.6116e-02  1.8147e-03  3.0668e-03  2.3458e-01  2.6322e-02  1.8314e-03  2.7032e-03  0:11:34 1857

  iter  continuity  x-velocity  y-velocity  z-velocity      energy           k       omega     time/iter
   144  2.5969e-02  1.8245e-03  3.0576e-03  2.3515e-01  2.6171e-02  1.8268e-03  2.6844e-03  0:15:26 1856
   145  2.5806e-02  1.8320e-03  3.0474e-03  2.3566e-01  2.6005e-02  1.8223e-03  2.6785e-03  0:12:20 1855
   146  2.5625e-02  1.8376e-03  3.0371e-03  2.3612e-01  2.5821e-02  1.8180e-03  2.6705e-03  0:16:03 1854
   147  2.5442e-02  1.8404e-03  3.0275e-03  2.3650e-01  2.5634e-02  1.8134e-03  2.6769e-03  0:12:50 1853
   148  2.5261e-02  1.8411e-03  3.0191e-03  2.3668e-01  2.5449e-02  1.8088e-03  2.6856e-03  0:16:26 1852
   149  2.5102e-02  1.8399e-03  3.0134e-03  2.3674e-01  2.5288e-02  1.8046e-03  2.6766e-03  0:13:08 1851
   150  2.4964e-02  1.8372e-03  3.0105e-03  2.3669e-01  2.5146e-02  1.8004e-03  2.6518e-03  0:10:30 1850
   151  2.4845e-02  1.8325e-03  3.0100e-03  2.3651e-01  2.5025e-02  1.7965e-03  2.6273e-03  0:14:34 1849
   152  2.4726e-02  1.8267e-03  3.0131e-03  2.3615e-01  2.4905e-02  1.7932e-03  2.6251e-03  0:11:39 1848
   153  2.4632e-02  1.8215e-03  3.0195e-03  2.3556e-01  2.4809e-02  1.7907e-03  2.6322e-03  0:15:28 1847
   154  2.4539e-02  1.8154e-03  3.0277e-03  2.3472e-01  2.4715e-02  1.7895e-03  2.6182e-03  0:12:22 1846

  iter  continuity  x-velocity  y-velocity  z-velocity      energy           k       omega     time/iter
   155  2.4434e-02  1.8083e-03  3.0384e-03  2.3360e-01  2.4608e-02  1.7890e-03  2.5753e-03  0:16:02 1845
   156  2.4299e-02  1.8026e-03  3.0519e-03  2.3212e-01  2.4471e-02  1.7889e-03  2.5661e-03  0:12:49 1844
   157  2.4125e-02  1.7969e-03  3.0653e-03  2.3040e-01  2.4294e-02  1.7954e-03  2.5435e-03  0:10:15 1843
   158  2.3911e-02  1.7910e-03  3.0794e-03  2.2847e-01  2.4078e-02  1.7922e-03  2.5249e-03  0:14:20 1842
   159  2.3665e-02  1.7856e-03  3.0946e-03  2.2620e-01  2.3829e-02  1.7926e-03  2.5135e-03  0:11:28 1841
   160  2.3382e-02  1.7823e-03  3.1084e-03  2.2368e-01  2.3543e-02  1.7938e-03  2.4854e-03  0:15:18 1840
   161  2.3045e-02  1.7793e-03  3.1210e-03  2.2075e-01  2.3201e-02  1.7961e-03  2.4880e-03  0:12:14 1839
   162  2.2686e-02  1.7773e-03  3.1335e-03  2.1758e-01  2.2839e-02  1.7989e-03  2.4249e-03  0:15:54 1838
   163  2.2309e-02  1.7794e-03  3.1444e-03  2.1374e-01  2.2458e-02  1.8012e-03  2.4204e-03  0:12:43 1837
   164  2.1930e-02  1.7836e-03  3.1535e-03  2.0939e-01  2.2075e-02  1.8029e-03  2.3960e-03  0:16:17 1836
   165  2.1546e-02  1.7912e-03  3.1619e-03  2.0490e-01  2.1687e-02  1.8044e-03  2.3873e-03  0:13:01 1835

  iter  continuity  x-velocity  y-velocity  z-velocity      energy           k       omega     time/iter
   166  2.1147e-02  1.8031e-03  3.1693e-03  2.0032e-01  2.1284e-02  1.8057e-03  2.3567e-03  0:16:32 1834
   167  2.0732e-02  1.8199e-03  3.1766e-03  1.9527e-01  2.0866e-02  1.8069e-03  2.3467e-03  0:13:13 1833
   168  2.0298e-02  1.8409e-03  3.1839e-03  1.9024e-01  2.0428e-02  1.8090e-03  2.3288e-03  0:10:34 1832
   169  1.9849e-02  1.8673e-03  3.1930e-03  1.8524e-01  1.9975e-02  1.8109e-03  2.3299e-03  0:14:33 1831
   170  1.9380e-02  1.9008e-03  3.2038e-03  1.8071e-01  1.9503e-02  1.8123e-03  2.3201e-03  0:11:38 1830
   171  1.8890e-02  1.9399e-03  3.2174e-03  1.7589e-01  1.9009e-02  1.8138e-03  2.3368e-03  0:15:24 1829
   172  1.8378e-02  1.9853e-03  3.2354e-03  1.7131e-01  1.8493e-02  1.8160e-03  2.3152e-03  0:12:19 1828
   173  1.7839e-02  2.0365e-03  3.2582e-03  1.6738e-01  1.7950e-02  1.8244e-03  2.3130e-03  0:15:56 1827
   174  1.7273e-02  2.0939e-03  3.2871e-03  1.6429e-01  1.7380e-02  1.8223e-03  2.2848e-03  0:12:44 1826
   175  1.6679e-02  2.1559e-03  3.3227e-03  1.6221e-01  1.6781e-02  1.8246e-03  2.2605e-03  0:10:11 1825
   176  1.6064e-02  2.2228e-03  3.3652e-03  1.6005e-01  1.6162e-02  1.8273e-03  2.2529e-03  0:14:14 1824

  iter  continuity  x-velocity  y-velocity  z-velocity      energy           k       omega     time/iter
   177  1.5444e-02  2.2937e-03  3.4158e-03  1.5881e-01  1.5536e-02  1.8317e-03  2.2174e-03  0:11:22 1823
   178  1.4833e-02  2.3674e-03  3.4745e-03  1.5847e-01  1.4920e-02  1.8361e-03  2.2105e-03  0:15:10 1822
   179  1.4240e-02  2.4436e-03  3.5415e-03  1.5907e-01  1.4323e-02  1.8411e-03  2.2151e-03  0:12:08 1821
   180  1.3682e-02  2.5221e-03  3.6172e-03  1.6070e-01  1.3761e-02  1.8467e-03  2.2088e-03  0:09:42 1820
   181  1.3165e-02  2.6020e-03  3.7005e-03  1.6335e-01  1.3238e-02  1.8544e-03  2.1948e-03  0:13:49 1819
   182  1.2701e-02  2.6820e-03  3.7923e-03  1.6670e-01  1.2770e-02  1.8631e-03  2.1918e-03  0:11:03 1818
   183  1.2295e-02  2.7619e-03  3.8922e-03  1.7051e-01  1.2360e-02  1.8725e-03  2.2016e-03  0:14:53 1817
   184  1.1951e-02  2.8406e-03  3.9995e-03  1.7451e-01  1.2011e-02  1.8844e-03  2.1952e-03  0:11:54 1816
   185  1.1682e-02  2.9182e-03  4.1142e-03  1.7857e-01  1.1738e-02  1.8953e-03  2.2010e-03  0:15:34 1815
   186  1.1489e-02  2.9934e-03  4.2367e-03  1.8268e-01  1.1541e-02  1.9077e-03  2.2189e-03  0:12:27 1814
   187  1.1380e-02  3.0656e-03  4.3671e-03  1.8683e-01  1.1427e-02  1.9205e-03  2.2395e-03  0:09:57 1813

  iter  continuity  x-velocity  y-velocity  z-velocity      energy           k       omega     time/iter
   188  1.1360e-02  3.1350e-03  4.5047e-03  1.9113e-01  1.1404e-02  1.9346e-03  2.2331e-03  0:14:00 1812
   189  1.1435e-02  3.2011e-03  4.6483e-03  1.9566e-01  1.1475e-02  1.9557e-03  2.2265e-03  0:11:12 1811
   190  1.1603e-02  3.2635e-03  4.7969e-03  2.0037e-01  1.1639e-02  1.9670e-03  2.2278e-03  0:08:57 1810
   191  1.1865e-02  3.3212e-03  4.9503e-03  2.0521e-01  1.1898e-02  1.9850e-03  2.2411e-03  0:13:11 1809
   192  1.2214e-02  3.3736e-03  5.1073e-03  2.0988e-01  1.2244e-02  2.0076e-03  2.2822e-03  0:10:33 1808
   193  1.2641e-02  3.4203e-03  5.2673e-03  2.1407e-01  1.2668e-02  2.0321e-03  2.3055e-03  0:14:27 1807
   194  1.3135e-02  3.4607e-03  5.4296e-03  2.1807e-01  1.3160e-02  2.0554e-03  2.3073e-03  0:11:33 1806
   195  1.3687e-02  3.4940e-03  5.5935e-03  2.2157e-01  1.3709e-02  2.0796e-03  2.3080e-03  0:09:14 1805
   196  1.4293e-02  3.5199e-03  5.7593e-03  2.2474e-01  1.4313e-02  2.1056e-03  2.2973e-03  0:13:24 1804
   197  1.4946e-02  3.5395e-03  5.9251e-03  2.2747e-01  1.4964e-02  2.1326e-03  2.3066e-03  0:10:43 1803
   198  1.5635e-02  3.5519e-03  6.0901e-03  2.2978e-01  1.5651e-02  2.1609e-03  2.3139e-03  0:14:34 1802

  iter  continuity  x-velocity  y-velocity  z-velocity      energy           k       omega     time/iter
   199  1.6349e-02  3.5571e-03  6.2531e-03  2.3193e-01  1.6364e-02  2.1890e-03  2.3260e-03  0:11:39 1801
   200  1.7079e-02  3.5539e-03  6.4129e-03  2.3331e-01  1.7093e-02  2.2201e-03  2.3101e-03  0:09:19 1800
   201  1.7822e-02  3.5428e-03  6.5684e-03  2.3450e-01  1.7835e-02  2.2526e-03  2.2712e-03  0:13:27 1799
   202  1.8573e-02  3.5236e-03  6.7191e-03  2.3414e-01  1.8585e-02  2.2832e-03  2.2515e-03  0:10:45 1798
   203  1.9321e-02  3.4935e-03  6.8647e-03  2.3314e-01  1.9331e-02  2.3131e-03  2.2223e-03  0:14:35 1797
   204  2.0071e-02  3.4546e-03  7.0062e-03  2.3363e-01  2.0080e-02  2.3453e-03  2.2281e-03  0:11:40 1796
   205  2.0820e-02  3.4076e-03  7.1416e-03  2.3394e-01  2.0829e-02  2.3764e-03  2.2297e-03  0:09:19 1795
   206  2.1562e-02  3.3541e-03  7.2691e-03  2.3365e-01  2.1570e-02  2.4060e-03  2.2076e-03  0:13:26 1794
   207  2.2289e-02  3.2941e-03  7.3874e-03  2.3386e-01  2.2296e-02  2.4335e-03  2.1777e-03  0:10:45 1793
   208  2.3000e-02  3.2267e-03  7.4964e-03  2.3445e-01  2.3007e-02  2.4596e-03  2.1525e-03  0:14:34 1792
   209  2.3684e-02  3.1556e-03  7.5942e-03  2.3491e-01  2.3690e-02  2.4819e-03  2.1347e-03  0:11:39 1791

  iter  continuity  x-velocity  y-velocity  z-velocity      energy           k       omega     time/iter
   210  2.4336e-02  3.0786e-03  7.6835e-03  2.3528e-01  2.4342e-02  2.5031e-03  2.1121e-03  0:09:19 1790
   211  2.4950e-02  2.9972e-03  7.7649e-03  2.3546e-01  2.4955e-02  2.5235e-03  2.0979e-03  0:13:24 1789
   212  2.5527e-02  2.9127e-03  7.8382e-03  2.3541e-01  2.5532e-02  2.5438e-03  2.0947e-03  0:10:43 1788
   213  2.6062e-02  2.8271e-03  7.9024e-03  2.3501e-01  2.6067e-02  2.5584e-03  2.0658e-03  0:14:32 1787
   214  2.6549e-02  2.7423e-03  7.9569e-03  2.3428e-01  2.6555e-02  2.5713e-03  2.0377e-03  0:11:37 1786
   215  2.6987e-02  2.6601e-03  8.0019e-03  2.3360e-01  2.6994e-02  2.5823e-03  2.0093e-03  0:09:17 1785
   216  2.7370e-02  2.5828e-03  8.0376e-03  2.3291e-01  2.7377e-02  2.5888e-03  1.9866e-03  0:13:22 1784
   217  2.7689e-02  2.5126e-03  8.0631e-03  2.3169e-01  2.7696e-02  2.5890e-03  1.9452e-03  0:10:42 1783
   218  2.7944e-02  2.4509e-03  8.0805e-03  2.3029e-01  2.7952e-02  2.5868e-03  1.9160e-03  0:14:29 1782
   219  2.8132e-02  2.4015e-03  8.0896e-03  2.2894e-01  2.8141e-02  2.5825e-03  1.8771e-03  0:11:35 1781
   220  2.8244e-02  2.3668e-03  8.0903e-03  2.2758e-01  2.8254e-02  2.5733e-03  1.8394e-03  0:09:16 1780

  iter  continuity  x-velocity  y-velocity  z-velocity      energy           k       omega     time/iter
   221  2.8278e-02  2.3490e-03  8.0824e-03  2.2630e-01  2.8287e-02  2.5617e-03  1.8042e-03  0:13:20 1779
   222  2.8235e-02  2.3487e-03  8.0668e-03  2.2464e-01  2.8245e-02  2.5478e-03  1.7652e-03  0:10:40 1778
   223  2.8111e-02  2.3664e-03  8.0450e-03  2.2285e-01  2.8122e-02  2.5305e-03  1.7324e-03  0:14:27 1777
   224  2.7900e-02  2.4065e-03  8.0145e-03  2.2096e-01  2.7911e-02  2.5134e-03  1.6998e-03  0:11:33 1776
   225  2.7601e-02  2.4707e-03  7.9750e-03  2.1872e-01  2.7613e-02  2.4970e-03  1.6642e-03  0:15:09 1775
   226  2.7212e-02  2.5573e-03  7.9269e-03  2.1631e-01  2.7224e-02  2.4817e-03  1.6318e-03  0:12:07 1774
   227  2.6734e-02  2.6642e-03  7.8718e-03  2.1354e-01  2.6745e-02  2.4638e-03  1.6031e-03  0:09:41 1773
   228  2.6163e-02  2.7889e-03  7.8098e-03  2.1189e-01  2.6174e-02  2.4447e-03  1.5825e-03  0:13:39 1772
   229  2.5505e-02  2.9283e-03  7.7424e-03  2.0786e-01  2.5515e-02  2.4248e-03  1.5562e-03  0:10:55 1771
   230  2.4756e-02  3.0796e-03  7.6696e-03  2.0465e-01  2.4765e-02  2.4036e-03  1.5349e-03  0:14:38 1770
   231  2.3925e-02  3.2395e-03  7.5931e-03  2.0382e-01  2.3932e-02  2.3810e-03  1.5108e-03  0:11:42 1769

  iter  continuity  x-velocity  y-velocity  z-velocity      energy           k       omega     time/iter
   232  2.3015e-02  3.4049e-03  7.5135e-03  2.0579e-01  2.3019e-02  2.3576e-03  1.4856e-03  0:09:21 1768
   233  2.2033e-02  3.5714e-03  7.4340e-03  2.0148e-01  2.2035e-02  2.3335e-03  1.4693e-03  0:13:22 1767
   234  2.0984e-02  3.7372e-03  7.3550e-03  2.5927e-01  2.0982e-02  2.3102e-03  1.4424e-03  0:10:41 1766
   235  1.9864e-02  3.8998e-03  7.2769e-03  2.2507e-01  1.9860e-02  2.2917e-03  1.4242e-03  0:14:26 1765
   236  1.8686e-02  4.0568e-03  7.2008e-03  2.3547e-01  1.8679e-02  2.2775e-03  1.4069e-03  0:11:32 1764
   237  1.7461e-02  4.2060e-03  7.1277e-03  2.6023e-01  1.7450e-02  2.2642e-03  1.3815e-03  0:15:06 1763
   238  1.6209e-02  4.3460e-03  7.0586e-03  2.2635e-01  1.6195e-02  2.2507e-03  1.3604e-03  0:12:04 1762
   239  1.4946e-02  4.4747e-03  6.9945e-03  2.2847e-01  1.4929e-02  2.2369e-03  1.3468e-03  0:09:39 1761
   240  1.3686e-02  4.5912e-03  6.9345e-03  2.1725e-01  1.3668e-02  2.2181e-03  1.3292e-03  0:13:35 1760
   241  1.2453e-02  4.6944e-03  6.8786e-03  2.0758e-01  1.2435e-02  2.1963e-03  1.3193e-03  0:10:52 1759
   242  1.1274e-02  4.7829e-03  6.8273e-03  2.0086e-01  1.1259e-02  2.1743e-03  1.3070e-03  0:14:33 1758

  iter  continuity  x-velocity  y-velocity  z-velocity      energy           k       omega     time/iter
   243  1.0188e-02  4.8564e-03  6.7809e-03  1.9975e-01  1.0179e-02  2.1532e-03  1.2917e-03  0:11:38 1757
   244  9.2469e-03  4.9142e-03  6.7398e-03  1.9778e-01  9.2496e-03  2.1344e-03  1.2757e-03  0:09:18 1756
   245  8.5083e-03  4.9566e-03  6.7044e-03  1.9972e-01  8.5278e-03  2.1177e-03  1.2645e-03  0:13:17 1755
   246  8.0340e-03  4.9826e-03  6.6748e-03  2.0207e-01  8.0759e-03  2.1024e-03  1.2535e-03  0:10:37 1754
   247  7.8842e-03  4.9929e-03  6.6534e-03  2.0623e-01  7.9524e-03  2.0887e-03  1.2463e-03  0:14:20 1753
   248  8.0798e-03  4.9879e-03  6.6404e-03  2.1160e-01  8.1750e-03  2.0749e-03  1.2354e-03  0:11:28 1752
   249  8.5934e-03  4.9678e-03  6.6375e-03  2.1770e-01  8.7131e-03  2.0628e-03  1.2340e-03  0:15:00 1751
   250  9.3646e-03  4.9325e-03  6.6451e-03  2.2460e-01  9.5048e-03  2.0528e-03  1.2267e-03  0:12:00 1750
   251  1.0328e-02  4.8828e-03  6.6646e-03  2.3223e-01  1.0485e-02  2.0435e-03  1.2238e-03  0:09:35 1749
   252  1.1424e-02  4.8195e-03  6.6975e-03  2.4018e-01  1.1594e-02  2.0356e-03  1.2325e-03  0:13:30 1748
   253  1.2607e-02  4.7424e-03  6.7440e-03  2.4898e-01  1.2789e-02  2.0306e-03  1.2433e-03  0:10:47 1747

  iter  continuity  x-velocity  y-velocity  z-velocity      energy           k       omega     time/iter
   254  1.3841e-02  4.6529e-03  6.8044e-03  2.5771e-01  1.4032e-02  2.0262e-03  1.2478e-03  0:14:27 1746
   255  1.5101e-02  4.5518e-03  6.8791e-03  2.6662e-01  1.5300e-02  2.0223e-03  1.2552e-03  0:11:33 1745
   256  1.6365e-02  4.4395e-03  6.9687e-03  2.7552e-01  1.6570e-02  2.0203e-03  1.2414e-03  0:09:14 1744
   257  1.7621e-02  4.3167e-03  7.0730e-03  2.8443e-01  1.7832e-02  2.0179e-03  1.2387e-03  0:13:12 1743
   258  1.8858e-02  4.1844e-03  7.1909e-03  2.9304e-01  1.9073e-02  2.0172e-03  1.2289e-03  0:10:33 1742
   259  2.0064e-02  4.0465e-03  7.3198e-03  3.0146e-01  2.0282e-02  2.0160e-03  1.2397e-03  0:14:14 1741
   260  2.1233e-02  3.9029e-03  7.4600e-03  3.0935e-01  2.1453e-02  2.0137e-03  1.2497e-03  0:11:23 1740
   261  2.2362e-02  3.7523e-03  7.6103e-03  3.1680e-01  2.2584e-02  2.0118e-03  1.2424e-03  0:09:06 1739
   262  2.3448e-02  3.5974e-03  7.7669e-03  3.2373e-01  2.3670e-02  2.0120e-03  1.2398e-03  0:13:04 1738
   263  2.4491e-02  3.4365e-03  7.9302e-03  3.2993e-01  2.4713e-02  2.0135e-03  1.2344e-03  0:10:27 1737
   264  2.5482e-02  3.2761e-03  8.0926e-03  3.3499e-01  2.5703e-02  2.0106e-03  1.2275e-03  0:14:09 1736

  iter  continuity  x-velocity  y-velocity  z-velocity      energy           k       omega     time/iter
   265  2.6413e-02  3.1173e-03  8.2527e-03  3.3972e-01  2.6632e-02  2.0039e-03  1.2248e-03  0:11:18 1735
   266  2.7283e-02  2.9594e-03  8.4101e-03  3.4323e-01  2.7500e-02  1.9975e-03  1.2257e-03  0:09:02 1734
   267  2.8085e-02  2.8103e-03  8.5588e-03  3.4545e-01  2.8297e-02  1.9918e-03  1.2216e-03  0:13:00 1733
   268  2.8812e-02  2.6697e-03  8.6989e-03  3.4727e-01  2.9020e-02  1.9858e-03  1.2206e-03  0:10:24 1732
   269  2.9467e-02  2.5371e-03  8.8305e-03  3.4790e-01  2.9670e-02  1.9750e-03  1.2076e-03  0:14:05 1731
   270  3.0033e-02  2.4235e-03  8.9463e-03  3.4812e-01  3.0231e-02  1.9644e-03  1.2024e-03  0:11:16 1730
   271  3.0516e-02  2.3282e-03  9.0479e-03  3.4753e-01  3.0708e-02  1.9558e-03  1.2015e-03  0:09:00 1729
   272  3.0909e-02  2.2546e-03  9.1329e-03  3.4646e-01  3.1095e-02  1.9492e-03  1.2008e-03  0:12:57 1728
   273  3.1213e-02  2.2022e-03  9.2019e-03  3.4543e-01  3.1391e-02  1.9429e-03  1.2017e-03  0:10:22 1727
   274  3.1425e-02  2.1735e-03  9.2536e-03  3.4498e-01  3.1596e-02  1.9363e-03  1.2002e-03  0:14:02 1726
   275  3.1543e-02  2.1690e-03  9.2869e-03  3.4328e-01  3.1706e-02  1.9294e-03  1.1924e-03  0:11:13 1725

  iter  continuity  x-velocity  y-velocity  z-velocity      energy           k       omega     time/iter
   276  3.1565e-02  2.1884e-03  9.3010e-03  3.4030e-01  3.1720e-02  1.9280e-03  1.1956e-03  0:08:58 1724
   277  3.1486e-02  2.2306e-03  9.2958e-03  3.3701e-01  3.1633e-02  1.9165e-03  1.1876e-03  0:12:55 1723
   278  3.1307e-02  2.2933e-03  9.2711e-03  3.3332e-01  3.1445e-02  1.9074e-03  1.1823e-03  0:10:20 1722
   279  3.1024e-02  2.3723e-03  9.2277e-03  3.2938e-01  3.1154e-02  1.8989e-03  1.1758e-03  0:14:00 1721
   280  3.0636e-02  2.4638e-03  9.1661e-03  3.2512e-01  3.0757e-02  1.8907e-03  1.1670e-03  0:11:11 1720
   281  3.0147e-02  2.5645e-03  9.0875e-03  3.2060e-01  3.0261e-02  1.8810e-03  1.1573e-03  0:08:57 1719
   282  2.9556e-02  2.6743e-03  8.9910e-03  3.1617e-01  2.9661e-02  1.8705e-03  1.1491e-03  0:12:53 1718
   283  2.8862e-02  2.7833e-03  8.8812e-03  3.1063e-01  2.8960e-02  1.8605e-03  1.1333e-03  0:10:18 1717
   284  2.8068e-02  2.8970e-03  8.7559e-03  3.0489e-01  2.8157e-02  1.8503e-03  1.1300e-03  0:13:57 1716
   285  2.7192e-02  3.0070e-03  8.6207e-03  3.0184e-01  2.7273e-02  1.8409e-03  1.1256e-03  0:11:09 1715
   286  2.6238e-02  3.1178e-03  8.4735e-03  2.9478e-01  2.6311e-02  1.8281e-03  1.1249e-03  0:08:55 1714

  iter  continuity  x-velocity  y-velocity  z-velocity      energy           k       omega     time/iter
   287  2.5215e-02  3.2242e-03  8.3181e-03  2.9120e-01  2.5281e-02  1.8132e-03  1.1330e-03  0:12:50 1713
   288  2.4136e-02  3.3227e-03  8.1588e-03  2.9047e-01  2.4194e-02  1.7983e-03  1.1424e-03  0:10:16 1712
   289  2.2997e-02  3.4163e-03  7.9940e-03  2.8709e-01  2.3049e-02  1.7842e-03  1.1503e-03  0:13:55 1711
   290  2.1791e-02  3.5024e-03  7.8259e-03  2.8276e-01  2.1836e-02  1.7717e-03  1.1613e-03  0:11:07 1710
   291  2.0540e-02  3.5808e-03  7.6567e-03  2.7464e-01  2.0578e-02  1.7610e-03  1.1679e-03  0:08:54 1709
   292  1.9280e-02  3.6511e-03  7.4885e-03  2.6764e-01  1.9311e-02  1.7517e-03  1.1780e-03  0:12:48 1708
   293  1.8036e-02  3.7126e-03  7.3239e-03  2.7249e-01  1.8059e-02  1.7425e-03  1.1889e-03  0:10:14 1707
   294  1.6804e-02  3.7640e-03  7.1651e-03  2.6891e-01  1.6820e-02  1.7337e-03  1.1993e-03  0:13:52 1706
   295  1.5587e-02  3.8046e-03  7.0115e-03  2.6156e-01  1.5595e-02  1.7255e-03  1.2092e-03  0:11:05 1705
   296  1.4403e-02  3.8336e-03  6.8673e-03  2.6244e-01  1.4403e-02  1.7185e-03  1.2170e-03  0:08:52 1704
   297  1.3292e-02  3.8528e-03  6.7370e-03  2.7259e-01  1.3283e-02  1.7132e-03  1.2289e-03  0:12:46 1703

  iter  continuity  x-velocity  y-velocity  z-velocity      energy           k       omega     time/iter
   298  1.2260e-02  3.8617e-03  6.6203e-03  2.5926e-01  1.2241e-02  1.7087e-03  1.2399e-03  0:10:12 1702
   299  1.1303e-02  3.8597e-03  6.5182e-03  2.8049e-01  1.1273e-02  1.7032e-03  1.2470e-03  0:13:50 1701
   300  1.0462e-02  3.8467e-03  6.4317e-03  2.6527e-01  1.0420e-02  1.6970e-03  1.2465e-03  0:11:03 1700
   301  9.7635e-03  3.8227e-03  6.3619e-03  2.8235e-01  9.7102e-03  1.6893e-03  1.2403e-03  0:08:50 1699
   302  9.2262e-03  3.7879e-03  6.3093e-03  2.5424e-01  9.1606e-03  1.6818e-03  1.2323e-03  0:12:44 1698
   303  8.8800e-03  3.7425e-03  6.2740e-03  2.6259e-01  8.8029e-03  1.6752e-03  1.2281e-03  0:10:11 1697
   304  8.7337e-03  3.6870e-03  6.2556e-03  2.6807e-01  8.6468e-03  1.6685e-03  1.2260e-03  0:13:47 1696
   305  8.7819e-03  3.6217e-03  6.2537e-03  2.6930e-01  8.6877e-03  1.6601e-03  1.2212e-03  0:11:02 1695
   306  9.0089e-03  3.5470e-03  6.2673e-03  2.5778e-01  8.9100e-03  1.6498e-03  1.2172e-03  0:08:49 1694
   307  9.3867e-03  3.4633e-03  6.2955e-03  2.5835e-01  9.2856e-03  1.6382e-03  1.2137e-03  0:12:41 1693
   308  9.8848e-03  3.3716e-03  6.3366e-03  2.5638e-01  9.7834e-03  1.6227e-03  1.2113e-03  0:10:09 1692

  iter  continuity  x-velocity  y-velocity  z-velocity      energy           k       omega     time/iter
   309  1.0472e-02  3.2723e-03  6.3889e-03  2.8296e-01  1.0371e-02  1.6080e-03  1.2111e-03  0:13:45 1691
   310  1.1119e-02  3.1662e-03  6.4507e-03  2.6079e-01  1.1021e-02  1.5989e-03  1.2115e-03  0:11:00 1690
   311  1.1804e-02  3.0541e-03  6.5198e-03  2.6320e-01  1.1709e-02  1.5812e-03  1.2025e-03  0:08:47 1689
   312  1.2509e-02  2.9369e-03  6.5945e-03  2.6874e-01  1.2417e-02  1.5623e-03  1.1938e-03  0:12:39 1688
   313  1.3219e-02  2.8153e-03  6.6727e-03  2.9154e-01  1.3130e-02  1.5420e-03  1.1838e-03  0:10:07 1687
   314  1.3919e-02  2.6905e-03  6.7522e-03  2.6893e-01  1.3834e-02  1.5213e-03  1.1747e-03  0:13:43 1686
   315  1.4601e-02  2.5635e-03  6.8316e-03  2.7776e-01  1.4520e-02  1.4999e-03  1.1688e-03  0:10:58 1685
   316  1.5262e-02  2.4345e-03  6.9102e-03  2.8605e-01  1.5184e-02  1.4776e-03  1.1553e-03  0:08:46 1684
   317  1.5891e-02  2.3058e-03  6.9855e-03  2.8924e-01  1.5817e-02  1.4542e-03  1.1446e-03  0:12:37 1683
   318  1.6483e-02  2.1798e-03  7.0553e-03  2.8042e-01  1.6412e-02  1.4302e-03  1.1326e-03  0:10:05 1682
   319  1.7031e-02  2.0581e-03  7.1185e-03  2.6816e-01  1.6964e-02  1.4068e-03  1.1227e-03  0:13:40 1681

  iter  continuity  x-velocity  y-velocity  z-velocity      energy           k       omega     time/iter
   320  1.7532e-02  1.9425e-03  7.1745e-03  2.7805e-01  1.7470e-02  1.3836e-03  1.1104e-03  0:10:56 1680
   321  1.7988e-02  1.8364e-03  7.2218e-03  2.7268e-01  1.7929e-02  1.3594e-03  1.1003e-03  0:08:44 1679
   322  1.8394e-02  1.7420e-03  7.2602e-03  2.7217e-01  1.8339e-02  1.3349e-03  1.0878e-03  0:12:35 1678
   323  1.8752e-02  1.6627e-03  7.2896e-03  2.7031e-01  1.8701e-02  1.3105e-03  1.0798e-03  0:10:03 1677
   324  1.9061e-02  1.6025e-03  7.3088e-03  2.6692e-01  1.9014e-02  1.2868e-03  1.0688e-03  0:13:38 1676
   325  1.9321e-02  1.5636e-03  7.3179e-03  2.7840e-01  1.9277e-02  1.2632e-03  1.0557e-03  0:10:54 1675
   326  1.9530e-02  1.5487e-03  7.3164e-03  2.7286e-01  1.9489e-02  1.2392e-03  1.0501e-03  0:08:43 1674
   327  1.9688e-02  1.5587e-03  7.3042e-03  2.7243e-01  1.9651e-02  1.2149e-03  1.0442e-03  0:12:32 1673
   328  1.9795e-02  1.5934e-03  7.2810e-03  2.5915e-01  1.9761e-02  1.1911e-03  1.0270e-03  0:10:02 1672
   329  1.9852e-02  1.6507e-03  7.2471e-03  2.6533e-01  1.9822e-02  1.1676e-03  1.0221e-03  0:13:35 1671
   330  1.9860e-02  1.7279e-03  7.2023e-03  2.6648e-01  1.9833e-02  1.1442e-03  1.0240e-03  0:10:52 1670

  iter  continuity  x-velocity  y-velocity  z-velocity      energy           k       omega     time/iter
   331  1.9818e-02  1.8208e-03  7.1475e-03  2.6822e-01  1.9794e-02  1.1210e-03  1.0259e-03  0:14:15 1669
   332  1.9728e-02  1.9264e-03  7.0828e-03  2.6394e-01  1.9707e-02  1.0993e-03  1.0177e-03  0:11:24 1668
   333  1.9591e-02  2.0409e-03  7.0085e-03  2.5222e-01  1.9573e-02  1.0789e-03  1.0094e-03  0:09:06 1667
   334  1.9408e-02  2.1612e-03  6.9251e-03  2.4550e-01  1.9393e-02  1.0594e-03  1.0172e-03  0:12:50 1666
   335  1.9180e-02  2.2845e-03  6.8328e-03  2.3978e-01  1.9167e-02  1.0432e-03  1.0180e-03  0:10:16 1665
   336  1.8908e-02  2.4085e-03  6.7322e-03  2.3464e-01  1.8898e-02  1.0308e-03  1.0250e-03  0:13:45 1664
   337  1.8593e-02  2.5311e-03  6.6236e-03  2.3023e-01  1.8585e-02  1.0277e-03  1.0326e-03  0:11:00 1663
   338  1.8237e-02  2.6506e-03  6.5077e-03  2.2677e-01  1.8230e-02  1.0298e-03  1.0216e-03  0:08:47 1662
   339  1.7841e-02  2.7662e-03  6.3849e-03  2.2376e-01  1.7837e-02  1.0329e-03  9.9768e-04  0:12:34 1661
   340  1.7409e-02  2.8764e-03  6.2563e-03  2.2078e-01  1.7405e-02  1.0376e-03  9.8998e-04  0:10:03 1660
   341  1.6944e-02  2.9792e-03  6.1237e-03  2.1763e-01  1.6942e-02  1.0432e-03  1.0033e-03  0:13:34 1659

  iter  continuity  x-velocity  y-velocity  z-velocity      energy           k       omega     time/iter
   342  1.6447e-02  3.0743e-03  5.9876e-03  2.1436e-01  1.6446e-02  1.0507e-03  1.0105e-03  0:10:51 1658
   343  1.5926e-02  3.1609e-03  5.8494e-03  2.1095e-01  1.5926e-02  1.0594e-03  1.0217e-03  0:14:12 1657
   344  1.5379e-02  3.2387e-03  5.7099e-03  2.0741e-01  1.5380e-02  1.0687e-03  1.0377e-03  0:11:21 1656
   345  1.4814e-02  3.3071e-03  5.5711e-03  2.0386e-01  1.4815e-02  1.0780e-03  1.0380e-03  0:09:04 1655
   346  1.4233e-02  3.3662e-03  5.4336e-03  2.0025e-01  1.4235e-02  1.0874e-03  1.0367e-03  0:12:46 1654
   347  1.3644e-02  3.4154e-03  5.2995e-03  1.9665e-01  1.3646e-02  1.0978e-03  1.0451e-03  0:10:12 1653
   348  1.3055e-02  3.4550e-03  5.1696e-03  1.9303e-01  1.3057e-02  1.1088e-03  1.0484e-03  0:13:40 1652
   349  1.2470e-02  3.4853e-03  5.0451e-03  1.8959e-01  1.2472e-02  1.1202e-03  1.0571e-03  0:10:56 1651
   350  1.1897e-02  3.5060e-03  4.9279e-03  1.8629e-01  1.1899e-02  1.1311e-03  1.0710e-03  0:08:44 1650
   351  1.1340e-02  3.5172e-03  4.8186e-03  1.8312e-01  1.1342e-02  1.1419e-03  1.0790e-03  0:12:29 1649
   352  1.0809e-02  3.5184e-03  4.7189e-03  1.8011e-01  1.0811e-02  1.1529e-03  1.0722e-03  0:09:59 1648

  iter  continuity  x-velocity  y-velocity  z-velocity      energy           k       omega     time/iter
   353  1.0308e-02  3.5102e-03  4.6293e-03  1.7749e-01  1.0310e-02  1.1637e-03  1.0691e-03  0:13:28 1647
   354  9.8440e-03  3.4926e-03  4.5510e-03  1.7512e-01  9.8464e-03  1.1741e-03  1.0740e-03  0:10:46 1646
   355  9.4257e-03  3.4660e-03  4.4843e-03  1.7314e-01  9.4284e-03  1.1835e-03  1.0733e-03  0:08:37 1645
   356  9.0656e-03  3.4303e-03  4.4304e-03  1.7133e-01  9.0686e-03  1.1931e-03  1.0770e-03  0:12:22 1644
   357  8.7665e-03  3.3859e-03  4.3889e-03  1.7012e-01  8.7700e-03  1.2025e-03  1.0825e-03  0:09:53 1643
   358  8.5376e-03  3.3331e-03  4.3603e-03  1.6916e-01  8.5417e-03  1.2117e-03  1.0772e-03  0:13:23 1642
   359  8.3834e-03  3.2724e-03  4.3439e-03  1.6853e-01  8.3883e-03  1.2271e-03  1.0752e-03  0:10:42 1641
   360  8.3094e-03  3.2042e-03  4.3392e-03  1.6821e-01  8.3152e-03  1.2323e-03  1.0661e-03  0:08:33 1640
   361  8.3081e-03  3.1294e-03  4.3453e-03  1.6819e-01  8.3150e-03  1.2409e-03  1.0590e-03  0:12:18 1639
   362  8.3788e-03  3.0485e-03  4.3610e-03  1.6843e-01  8.3867e-03  1.2502e-03  1.0515e-03  0:09:50 1638
   363  8.5205e-03  2.9625e-03  4.3853e-03  1.6893e-01  8.5295e-03  1.2596e-03  1.0445e-03  0:07:52 1637

  iter  continuity  x-velocity  y-velocity  z-velocity      energy           k       omega     time/iter
   364  8.7246e-03  2.8722e-03  4.4165e-03  1.6936e-01  8.7346e-03  1.2693e-03  1.0397e-03  0:11:44 1636
   365  8.9809e-03  2.7785e-03  4.4533e-03  1.7023e-01  8.9919e-03  1.2785e-03  1.0305e-03  0:09:23 1635
   366  9.2776e-03  2.6826e-03  4.4940e-03  1.7136e-01  9.2895e-03  1.2870e-03  1.0255e-03  0:12:57 1634
   367  9.6025e-03  2.5855e-03  4.5372e-03  1.7252e-01  9.6152e-03  1.2954e-03  1.0222e-03  0:10:21 1633
   368  9.9468e-03  2.4882e-03  4.5814e-03  1.7376e-01  9.9601e-03  1.3022e-03  1.0157e-03  0:08:17 1632
   369  1.0302e-02  2.3918e-03  4.6255e-03  1.7624e-01  1.0315e-02  1.3087e-03  1.0104e-03  0:12:03 1631
   370  1.0659e-02  2.2975e-03  4.6681e-03  1.7843e-01  1.0673e-02  1.3158e-03  1.0058e-03  0:09:38 1630
   371  1.1012e-02  2.2064e-03  4.7082e-03  1.8089e-01  1.1026e-02  1.3230e-03  9.9871e-04  0:13:08 1629
   372  1.1355e-02  2.1193e-03  4.7454e-03  1.8362e-01  1.1369e-02  1.3301e-03  9.8936e-04  0:10:30 1628
   373  1.1685e-02  2.0370e-03  4.7788e-03  1.8620e-01  1.1699e-02  1.3365e-03  9.8138e-04  0:08:24 1627
   374  1.1999e-02  1.9610e-03  4.8079e-03  1.8869e-01  1.2013e-02  1.3423e-03  9.7272e-04  0:12:08 1626

  iter  continuity  x-velocity  y-velocity  z-velocity      energy           k       omega     time/iter
   375  1.2294e-02  1.8922e-03  4.8322e-03  1.9146e-01  1.2308e-02  1.3478e-03  9.6271e-04  0:09:42 1625
   376  1.2569e-02  1.8319e-03  4.8515e-03  1.9396e-01  1.2583e-02  1.3539e-03  9.5335e-04  0:07:45 1624
   377  1.2822e-02  1.7810e-03  4.8656e-03  1.9615e-01  1.2836e-02  1.3599e-03  9.4897e-04  0:11:37 1623
   378  1.3053e-02  1.7399e-03  4.8744e-03  1.9827e-01  1.3066e-02  1.3653e-03  9.4155e-04  0:09:17 1622
   379  1.3259e-02  1.7095e-03  4.8778e-03  2.0012e-01  1.3271e-02  1.3703e-03  9.3174e-04  0:12:50 1621
   380  1.3441e-02  1.6891e-03  4.8763e-03  2.0176e-01  1.3453e-02  1.3755e-03  9.2367e-04  0:10:15 1620
   381  1.3598e-02  1.6787e-03  4.8696e-03  2.0307e-01  1.3609e-02  1.3803e-03  9.1538e-04  0:08:12 1619
   382  1.3728e-02  1.6781e-03  4.8577e-03  2.0438e-01  1.3739e-02  1.3851e-03  9.1247e-04  0:11:57 1618
   383  1.3831e-02  1.6863e-03  4.8405e-03  2.0595e-01  1.3841e-02  1.3900e-03  9.0911e-04  0:09:33 1617
   384  1.3906e-02  1.7022e-03  4.8181e-03  2.0794e-01  1.3916e-02  1.3942e-03  9.0913e-04  0:13:01 1616
   385  1.3955e-02  1.7255e-03  4.7904e-03  2.0979e-01  1.3964e-02  1.3975e-03  9.1186e-04  0:10:25 1615

  iter  continuity  x-velocity  y-velocity  z-velocity      energy           k       omega     time/iter
   386  1.3979e-02  1.7549e-03  4.7577e-03  2.1296e-01  1.3987e-02  1.4008e-03  9.1654e-04  0:08:19 1614
   387  1.3979e-02  1.7893e-03  4.7207e-03  2.1556e-01  1.3987e-02  1.4041e-03  9.1572e-04  0:12:02 1613
   388  1.3958e-02  1.8269e-03  4.6797e-03  2.1657e-01  1.3964e-02  1.4073e-03  9.1328e-04  0:09:37 1612
   389  1.3916e-02  1.8670e-03  4.6354e-03  2.1742e-01  1.3922e-02  1.4110e-03  9.2265e-04  0:07:41 1611
   390  1.3855e-02  1.9085e-03  4.5881e-03  2.1886e-01  1.3861e-02  1.4154e-03  9.3870e-04  0:11:31 1610
   391  1.3779e-02  1.9498e-03  4.5388e-03  2.1862e-01  1.3783e-02  1.4203e-03  9.5197e-04  0:09:12 1609
   392  1.3688e-02  1.9902e-03  4.4877e-03  2.1920e-01  1.3692e-02  1.4254e-03  9.5434e-04  0:12:43 1608
   393  1.3585e-02  2.0291e-03  4.4355e-03  2.1750e-01  1.3588e-02  1.4310e-03  9.5423e-04  0:10:10 1607
   394  1.3474e-02  2.0656e-03  4.3829e-03  2.1739e-01  1.3476e-02  1.4370e-03  9.6084e-04  0:08:08 1606
   395  1.3357e-02  2.0992e-03  4.3305e-03  2.1315e-01  1.3359e-02  1.4436e-03  9.7451e-04  0:11:51 1605
   396  1.3234e-02  2.1295e-03  4.2788e-03  2.1732e-01  1.3236e-02  1.4502e-03  9.8872e-04  0:09:28 1604

  iter  continuity  x-velocity  y-velocity  z-velocity      energy           k       omega     time/iter
   397  1.3111e-02  2.1562e-03  4.2284e-03  2.1616e-01  1.3112e-02  1.4572e-03  9.9763e-04  0:07:35 1603
   398  1.2987e-02  2.1790e-03  4.1798e-03  2.1911e-01  1.2987e-02  1.4648e-03  1.0115e-03  0:11:24 1602
   399  1.2867e-02  2.1978e-03  4.1333e-03  2.2444e-01  1.2867e-02  1.4730e-03  1.0317e-03  0:09:07 1601
   400  1.2754e-02  2.2122e-03  4.0896e-03  2.1958e-01  1.2754e-02  1.4815e-03  1.0579e-03  0:12:37 1600
   401  1.2648e-02  2.2219e-03  4.0489e-03  2.1256e-01  1.2648e-02  1.4897e-03  1.0736e-03  0:10:05 1599
   402  1.2554e-02  2.2268e-03  4.0114e-03  2.2017e-01  1.2553e-02  1.4981e-03  1.0913e-03  0:08:04 1598
   403  1.2468e-02  2.2268e-03  3.9772e-03  2.1158e-01  1.2467e-02  1.5081e-03  1.1070e-03  0:11:46 1597
   404  1.2392e-02  2.2219e-03  3.9462e-03  2.1238e-01  1.2391e-02  1.5186e-03  1.1118e-03  0:09:25 1596
   405  1.2321e-02  2.2122e-03  3.9182e-03  2.0520e-01  1.2319e-02  1.5290e-03  1.1054e-03  0:07:31 1595
   406  1.2253e-02  2.1974e-03  3.8936e-03  2.0763e-01  1.2251e-02  1.5391e-03  1.0933e-03  0:11:20 1594
   407  1.2200e-02  2.1778e-03  3.8721e-03  2.1843e-01  1.2198e-02  1.5485e-03  1.0629e-03  0:09:03 1593

  iter  continuity  x-velocity  y-velocity  z-velocity      energy           k       omega     time/iter
   408  1.2147e-02  2.1530e-03  3.8537e-03  2.1015e-01  1.2145e-02  1.5576e-03  1.0501e-03  0:12:33 1592
   409  1.2104e-02  2.1230e-03  3.8381e-03  2.2031e-01  1.2102e-02  1.5671e-03  1.0435e-03  0:10:02 1591
   410  1.2063e-02  2.0882e-03  3.8248e-03  2.2966e-01  1.2061e-02  1.5764e-03  1.0313e-03  0:08:01 1590
   411  1.2030e-02  2.0486e-03  3.8136e-03  2.2903e-01  1.2027e-02  1.5878e-03  1.0167e-03  0:11:43 1589
   412  1.1987e-02  2.0043e-03  3.8042e-03  2.4366e-01  1.1985e-02  1.5995e-03  1.0111e-03  0:09:22 1588
   413  1.1941e-02  1.9555e-03  3.7958e-03  2.3085e-01  1.1938e-02  1.6121e-03  1.0036e-03  0:12:46 1587
   414  1.1865e-02  1.9025e-03  3.7879e-03  2.2908e-01  1.1862e-02  1.6280e-03  9.9929e-04  0:10:13 1586
   415  1.1766e-02  1.8453e-03  3.7804e-03  2.2255e-01  1.1763e-02  1.6460e-03  9.9138e-04  0:08:10 1585
   416  1.1696e-02  1.7843e-03  3.7725e-03  2.1594e-01  1.1693e-02  1.6637e-03  9.7991e-04  0:11:48 1584
   417  1.1656e-02  1.7199e-03  3.7639e-03  2.0808e-01  1.1652e-02  1.6830e-03  9.7216e-04  0:09:26 1583
   418  1.1581e-02  1.6523e-03  3.7541e-03  2.0953e-01  1.1578e-02  1.7031e-03  9.6996e-04  0:07:33 1582

  iter  continuity  x-velocity  y-velocity  z-velocity      energy           k       omega     time/iter
   419  1.1507e-02  1.5820e-03  3.7426e-03  2.0293e-01  1.1503e-02  1.7257e-03  9.6618e-04  0:11:18 1581
   420  1.1431e-02  1.5094e-03  3.7290e-03  2.0150e-01  1.1427e-02  1.7519e-03  9.6208e-04  0:09:02 1580
   421  1.1341e-02  1.4347e-03  3.7130e-03  1.9882e-01  1.1337e-02  1.7777e-03  9.5626e-04  0:12:29 1579
   422  1.1288e-02  1.3585e-03  3.6942e-03  1.9662e-01  1.1284e-02  1.8036e-03  9.5593e-04  0:09:59 1578
   423  1.1252e-02  1.2813e-03  3.6724e-03  1.9431e-01  1.1247e-02  1.8308e-03  9.5640e-04  0:07:59 1577
   424  1.1190e-02  1.2036e-03  3.6472e-03  1.9143e-01  1.1185e-02  1.8581e-03  9.5203e-04  0:11:38 1576
   425  1.1107e-02  1.1263e-03  3.6188e-03  1.8832e-01  1.1102e-02  1.8872e-03  9.4332e-04  0:09:18 1575
   426  1.0998e-02  1.0503e-03  3.5868e-03  1.8513e-01  1.0994e-02  1.9167e-03  9.3899e-04  0:12:41 1574
   427  1.0872e-02  9.7662e-04  3.5514e-03  1.8168e-01  1.0868e-02  1.9470e-03  9.3430e-04  0:10:08 1573
   428  1.0729e-02  9.0678e-04  3.5124e-03  1.7826e-01  1.0725e-02  1.9771e-03  9.3324e-04  0:13:21 1572
   429  1.0571e-02  8.4223e-04  3.4699e-03  1.7497e-01  1.0566e-02  2.0059e-03  9.2885e-04  0:10:40 1571

  iter  continuity  x-velocity  y-velocity  z-velocity      energy           k       omega     time/iter
   430  1.0400e-02  7.8490e-04  3.4241e-03  1.7174e-01  1.0396e-02  2.0347e-03  9.1856e-04  0:08:32 1570
   431  1.0241e-02  7.3694e-04  3.3749e-03  1.7023e-01  1.0236e-02  2.0618e-03  9.1155e-04  0:12:03 1569
   432  1.0074e-02  7.0041e-04  3.3226e-03  1.6699e-01  1.0070e-02  2.0882e-03  9.0360e-04  0:09:38 1568
   433  9.9084e-03  6.7683e-04  3.2674e-03  1.6179e-01  9.9037e-03  2.1143e-03  8.9789e-04  0:12:56 1567
   434  9.7377e-03  6.6789e-04  3.2095e-03  1.5794e-01  9.7331e-03  2.1404e-03  8.9220e-04  0:10:20 1566
   435  9.5609e-03  6.7359e-04  3.1492e-03  1.5639e-01  9.5563e-03  2.1649e-03  8.8854e-04  0:08:16 1565
   436  9.3677e-03  6.9289e-04  3.0868e-03  1.5317e-01  9.3632e-03  2.1887e-03  8.7614e-04  0:11:49 1564
   437  9.1406e-03  7.2373e-04  3.0226e-03  1.4927e-01  9.1361e-03  2.2102e-03  8.6495e-04  0:09:27 1563
   438  8.9031e-03  7.6358e-04  2.9570e-03  1.4536e-01  8.8987e-03  2.2299e-03  8.5538e-04  0:12:46 1562
   439  8.6670e-03  8.0989e-04  2.8905e-03  1.4401e-01  8.6626e-03  2.2481e-03  8.4880e-04  0:10:12 1561
   440  8.4321e-03  8.6024e-04  2.8239e-03  1.4643e-01  8.4278e-03  2.2635e-03  8.3939e-04  0:08:09 1560

  iter  continuity  x-velocity  y-velocity  z-velocity      energy           k       omega     time/iter
   441  8.1878e-03  9.1283e-04  2.7576e-03  1.4317e-01  8.1836e-03  2.2766e-03  8.2767e-04  0:11:43 1559
   442  7.9407e-03  9.6600e-04  2.6919e-03  1.4157e-01  7.9366e-03  2.2874e-03  8.1864e-04  0:09:22 1558
   443  7.6970e-03  1.0184e-03  2.6277e-03  1.4033e-01  7.6930e-03  2.2954e-03  8.1109e-04  0:12:41 1557
   444  7.4564e-03  1.0688e-03  2.5654e-03  1.3929e-01  7.4526e-03  2.2998e-03  8.0045e-04  0:10:08 1556
   445  7.2095e-03  1.1164e-03  2.5059e-03  1.3827e-01  7.2058e-03  2.3020e-03  7.8899e-04  0:08:06 1555
   446  6.9525e-03  1.1604e-03  2.4496e-03  1.3715e-01  6.9490e-03  2.3023e-03  7.7938e-04  0:11:40 1554
   447  6.7042e-03  1.2001e-03  2.3972e-03  1.3629e-01  6.7009e-03  2.2999e-03  7.7159e-04  0:09:19 1553
   448  6.4628e-03  1.2350e-03  2.3494e-03  1.3540e-01  6.4596e-03  2.2956e-03  7.6569e-04  0:07:27 1552
   449  6.2199e-03  1.2647e-03  2.3065e-03  1.3457e-01  6.2170e-03  2.2888e-03  7.6184e-04  0:11:08 1551
   450  5.9772e-03  1.2890e-03  2.2691e-03  1.3409e-01  5.9744e-03  2.2798e-03  7.5660e-04  0:08:54 1550
   451  5.7364e-03  1.3074e-03  2.2376e-03  1.3414e-01  5.7338e-03  2.2679e-03  7.5168e-04  0:12:17 1549

  iter  continuity  x-velocity  y-velocity  z-velocity      energy           k       omega     time/iter
   452  5.5193e-03  1.3200e-03  2.2120e-03  1.3297e-01  5.5168e-03  2.2524e-03  7.4925e-04  0:09:49 1548
   453  5.3197e-03  1.3267e-03  2.1923e-03  1.3347e-01  5.3174e-03  2.2309e-03  7.4825e-04  0:07:51 1547
   454  5.1478e-03  1.3277e-03  2.1783e-03  1.3297e-01  5.1457e-03  2.2072e-03  7.3750e-04  0:11:26 1546
   455  5.0085e-03  1.3228e-03  2.1697e-03  1.3293e-01  5.0065e-03  2.1823e-03  7.3100e-04  0:09:08 1545
   456  4.9055e-03  1.3125e-03  2.1662e-03  1.3342e-01  4.9036e-03  2.1542e-03  7.2920e-04  0:12:27 1544
   457  4.8538e-03  1.2967e-03  2.1672e-03  1.3420e-01  4.8519e-03  2.1229e-03  7.2792e-04  0:09:57 1543
   458  4.8492e-03  1.2759e-03  2.1722e-03  1.3459e-01  4.8475e-03  2.0893e-03  7.2274e-04  0:07:57 1542
   459  4.9050e-03  1.2505e-03  2.1805e-03  1.3545e-01  4.9033e-03  2.0535e-03  7.1643e-04  0:11:30 1541
   460  5.0160e-03  1.2209e-03  2.1913e-03  1.3608e-01  5.0142e-03  2.0156e-03  7.1157e-04  0:09:12 1540
   461  5.1764e-03  1.1878e-03  2.2039e-03  1.3710e-01  5.1746e-03  1.9745e-03  7.0659e-04  0:07:21 1539
   462  5.3756e-03  1.1518e-03  2.2176e-03  1.3790e-01  5.3736e-03  1.9313e-03  7.0072e-04  0:11:00 1538

  iter  continuity  x-velocity  y-velocity  z-velocity      energy           k       omega     time/iter
   463  5.6104e-03  1.1138e-03  2.2317e-03  1.3869e-01  5.6082e-03  1.8866e-03  6.9703e-04  0:08:48 1537
   464  5.8772e-03  1.0748e-03  2.2456e-03  1.3951e-01  5.8748e-03  1.8401e-03  6.9283e-04  0:07:02 1536
   465  6.1699e-03  1.0359e-03  2.2586e-03  1.4044e-01  6.1672e-03  1.7916e-03  6.8595e-04  0:10:44 1535
   466  6.4774e-03  9.9841e-04  2.2704e-03  1.4147e-01  6.4745e-03  1.7416e-03  6.7588e-04  0:08:35 1534
   467  6.7831e-03  9.6386e-04  2.2805e-03  1.4256e-01  6.7800e-03  1.6892e-03  6.6769e-04  0:11:58 1533
   468  7.0669e-03  9.3396e-04  2.2887e-03  1.4368e-01  7.0635e-03  1.6372e-03  6.5817e-04  0:09:34 1532
   469  7.2990e-03  9.1037e-04  2.2949e-03  1.4502e-01  7.2953e-03  1.5862e-03  6.5240e-04  0:07:39 1531
   470  7.4810e-03  8.9505e-04  2.2991e-03  1.4647e-01  7.4769e-03  1.5342e-03  6.4643e-04  0:11:13 1530
   471  7.6081e-03  8.8974e-04  2.3012e-03  1.4786e-01  7.6038e-03  1.4814e-03  6.4027e-04  0:08:58 1529
   472  7.6850e-03  8.9573e-04  2.3015e-03  1.4898e-01  7.6803e-03  1.4294e-03  6.3800e-04  0:07:10 1528
   473  7.7225e-03  9.1382e-04  2.3000e-03  1.4993e-01  7.7176e-03  1.3796e-03  6.3039e-04  0:10:49 1527

  iter  continuity  x-velocity  y-velocity  z-velocity      energy           k       omega     time/iter
   474  7.6986e-03  9.4390e-04  2.2973e-03  1.5031e-01  7.6933e-03  1.3318e-03  6.2949e-04  0:08:39 1526
   475  7.6052e-03  9.8478e-04  2.2940e-03  1.5166e-01  7.5996e-03  1.2879e-03  6.2823e-04  0:06:55 1525
   476  7.4680e-03  1.0356e-03  2.2907e-03  1.5248e-01  7.4620e-03  1.2487e-03  6.2466e-04  0:10:37 1524
   477  7.2979e-03  1.0947e-03  2.2882e-03  1.5315e-01  7.2915e-03  1.2159e-03  6.1910e-04  0:08:29 1523
   478  7.1047e-03  1.1607e-03  2.2871e-03  1.5359e-01  7.0979e-03  1.1898e-03  6.1310e-04  0:06:47 1522
   479  6.8959e-03  1.2317e-03  2.2886e-03  1.5429e-01  6.8887e-03  1.1672e-03  6.1490e-04  0:10:30 1521
   480  6.6826e-03  1.3064e-03  2.2935e-03  1.5514e-01  6.6750e-03  1.1495e-03  6.1905e-04  0:08:23 1520
   481  6.4621e-03  1.3836e-03  2.3024e-03  1.5607e-01  6.4542e-03  1.1358e-03  6.2036e-04  0:11:46 1519
   482  6.2431e-03  1.4623e-03  2.3165e-03  1.5678e-01  6.2349e-03  1.1295e-03  6.1578e-04  0:09:25 1518
   483  6.0290e-03  1.5416e-03  2.3364e-03  1.5738e-01  6.0205e-03  1.1315e-03  6.1320e-04  0:07:31 1517
   484  5.8233e-03  1.6202e-03  2.3636e-03  1.5788e-01  5.8146e-03  1.1383e-03  6.1321e-04  0:11:04 1516

  iter  continuity  x-velocity  y-velocity  z-velocity      energy           k       omega     time/iter
   485  5.6296e-03  1.6977e-03  2.3984e-03  1.5826e-01  5.6208e-03  1.1517e-03  6.1564e-04  0:08:51 1515
   486  5.4521e-03  1.7732e-03  2.4415e-03  1.5848e-01  5.4432e-03  1.1678e-03  6.1592e-04  0:07:04 1514
   487  5.2905e-03  1.8463e-03  2.4930e-03  1.5861e-01  5.2815e-03  1.1848e-03  6.1685e-04  0:10:42 1513
   488  5.1495e-03  1.9165e-03  2.5532e-03  1.5861e-01  5.1405e-03  1.2038e-03  6.1721e-04  0:08:33 1512
   489  5.0293e-03  1.9828e-03  2.6226e-03  1.5846e-01  5.0205e-03  1.2245e-03  6.1615e-04  0:06:50 1511
   490  4.9351e-03  2.0451e-03  2.7006e-03  1.5810e-01  4.9265e-03  1.2449e-03  6.1856e-04  0:10:30 1510
   491  4.8724e-03  2.1029e-03  2.7868e-03  1.5770e-01  4.8641e-03  1.2667e-03  6.2190e-04  0:08:24 1509
   492  4.8454e-03  2.1560e-03  2.8802e-03  1.5716e-01  4.8375e-03  1.2901e-03  6.2071e-04  0:06:43 1508
   493  4.8570e-03  2.2036e-03  2.9809e-03  1.5642e-01  4.8496e-03  1.3145e-03  6.2810e-04  0:10:23 1507
   494  4.9048e-03  2.2458e-03  3.0876e-03  1.5541e-01  4.8979e-03  1.3407e-03  6.3455e-04  0:08:18 1506
   495  4.9865e-03  2.2822e-03  3.1994e-03  1.5424e-01  4.9802e-03  1.3655e-03  6.3896e-04  0:11:39 1505

  iter  continuity  x-velocity  y-velocity  z-velocity      energy           k       omega     time/iter
   496  5.0993e-03  2.3128e-03  3.3150e-03  1.5283e-01  5.0937e-03  1.3890e-03  6.4318e-04  0:09:19 1504
   497  5.2401e-03  2.3369e-03  3.4343e-03  1.5126e-01  5.2352e-03  1.4115e-03  6.4527e-04  0:07:27 1503
   498  5.4047e-03  2.3547e-03  3.5558e-03  1.4949e-01  5.4004e-03  1.4349e-03  6.4509e-04  0:10:58 1502
   499  5.5890e-03  2.3661e-03  3.6785e-03  1.4781e-01  5.5853e-03  1.4578e-03  6.4507e-04  0:08:46 1501
   500  5.7889e-03  2.3711e-03  3.8012e-03  1.4605e-01  5.7858e-03  1.4774e-03  6.4109e-04  0:07:00 1500
   501  6.0013e-03  2.3692e-03  3.9236e-03  1.4422e-01  5.9988e-03  1.4958e-03  6.3942e-04  0:10:36 1499
   502  6.2223e-03  2.3609e-03  4.0444e-03  1.4234e-01  6.2204e-03  1.5134e-03  6.4089e-04  0:08:28 1498
   503  6.4478e-03  2.3461e-03  4.1626e-03  1.4050e-01  6.4464e-03  1.5296e-03  6.4115e-04  0:06:46 1497
   504  6.6744e-03  2.3248e-03  4.2776e-03  1.3858e-01  6.6735e-03  1.5441e-03  6.4170e-04  0:10:24 1496
   505  6.8984e-03  2.2973e-03  4.3885e-03  1.3648e-01  6.8980e-03  1.5574e-03  6.3759e-04  0:08:19 1495
   506  7.1168e-03  2.2637e-03  4.4944e-03  1.3419e-01  7.1170e-03  1.5681e-03  6.3296e-04  0:11:38 1494

  iter  continuity  x-velocity  y-velocity  z-velocity      energy           k       omega     time/iter
   507  7.3273e-03  2.2244e-03  4.5947e-03  1.3183e-01  7.3280e-03  1.5759e-03  6.3270e-04  0:09:18 1493
   508  7.5274e-03  2.1796e-03  4.6887e-03  1.2935e-01  7.5286e-03  1.5849e-03  6.2954e-04  0:07:26 1492
   509  7.7155e-03  2.1298e-03  4.7756e-03  1.2694e-01  7.7171e-03  1.5921e-03  6.2547e-04  0:10:55 1491
   510  7.8886e-03  2.0753e-03  4.8551e-03  1.2449e-01  7.8907e-03  1.5971e-03  6.2273e-04  0:08:43 1490
   511  8.0449e-03  2.0168e-03  4.9265e-03  1.2202e-01  8.0475e-03  1.6003e-03  6.1908e-04  0:06:58 1489
   512  8.1827e-03  1.9548e-03  4.9893e-03  1.1952e-01  8.1858e-03  1.6016e-03  6.0719e-04  0:10:32 1488
   513  8.3006e-03  1.8901e-03  5.0431e-03  1.1705e-01  8.3041e-03  1.6014e-03  5.9728e-04  0:08:25 1487
   514  8.3975e-03  1.8236e-03  5.0875e-03  1.1463e-01  8.4014e-03  1.6001e-03  5.9782e-04  0:06:44 1486
   515  8.4717e-03  1.7562e-03  5.1220e-03  1.1233e-01  8.4761e-03  1.5951e-03  5.9568e-04  0:10:20 1485
   516  8.5227e-03  1.6891e-03  5.1464e-03  1.1014e-01  8.5275e-03  1.5860e-03  5.9282e-04  0:08:16 1484
   517  8.5490e-03  1.6234e-03  5.1605e-03  1.0797e-01  8.5541e-03  1.5772e-03  5.9067e-04  0:06:36 1483

  iter  continuity  x-velocity  y-velocity  z-velocity      energy           k       omega     time/iter
   518  8.5506e-03  1.5604e-03  5.1642e-03  1.0585e-01  8.5559e-03  1.5670e-03  5.8694e-04  0:10:13 1482
   519  8.5270e-03  1.5015e-03  5.1573e-03  1.0395e-01  8.5326e-03  1.5562e-03  5.7668e-04  0:08:10 1481
   520  8.4780e-03  1.4481e-03  5.1398e-03  1.0221e-01  8.4838e-03  1.5438e-03  5.7373e-04  0:06:32 1480
   521  8.4037e-03  1.4019e-03  5.1118e-03  1.0062e-01  8.4097e-03  1.5292e-03  5.7148e-04  0:10:09 1479
   522  8.3031e-03  1.3640e-03  5.0732e-03  9.9187e-02  8.3092e-03  1.5136e-03  5.6620e-04  0:08:07 1478
   523  8.1769e-03  1.3356e-03  5.0242e-03  9.7957e-02  8.1830e-03  1.4965e-03  5.5967e-04  0:06:29 1477
   524  8.0255e-03  1.3174e-03  4.9650e-03  9.6959e-02  8.0315e-03  1.4742e-03  5.5894e-04  0:10:06 1476
   525  7.8493e-03  1.3098e-03  4.8961e-03  9.6220e-02  7.8552e-03  1.4524e-03  5.6099e-04  0:08:05 1475
   526  7.6492e-03  1.3124e-03  4.8177e-03  9.5727e-02  7.6549e-03  1.4312e-03  5.6125e-04  0:06:28 1474
   527  7.4256e-03  1.3250e-03  4.7301e-03  9.5442e-02  7.4310e-03  1.4082e-03  5.6042e-04  0:10:04 1473
   528  7.1795e-03  1.3463e-03  4.6341e-03  9.5386e-02  7.1845e-03  1.3833e-03  5.6446e-04  0:08:03 1472

  iter  continuity  x-velocity  y-velocity  z-velocity      energy           k       omega     time/iter
   529  6.9124e-03  1.3748e-03  4.5303e-03  9.5520e-02  6.9168e-03  1.3570e-03  5.6669e-04  0:06:26 1471
   530  6.6254e-03  1.4088e-03  4.4193e-03  9.5857e-02  6.6292e-03  1.3282e-03  5.6686e-04  0:10:03 1470
   531  6.3198e-03  1.4466e-03  4.3020e-03  9.6418e-02  6.3229e-03  1.3002e-03  5.6451e-04  0:08:02 1469
   532  5.9982e-03  1.4867e-03  4.1792e-03  9.7207e-02  6.0005e-03  1.2719e-03  5.6331e-04  0:06:25 1468
   533  5.6612e-03  1.5274e-03  4.0517e-03  9.8082e-02  5.6626e-03  1.2421e-03  5.6097e-04  0:10:01 1467
   534  5.3108e-03  1.5671e-03  3.9209e-03  9.9148e-02  5.3112e-03  1.2122e-03  5.6339e-04  0:08:01 1466
   535  4.9496e-03  1.6045e-03  3.7878e-03  1.0035e-01  4.9488e-03  1.1831e-03  5.6188e-04  0:06:24 1465
   536  4.5804e-03  1.6388e-03  3.6535e-03  1.0170e-01  4.5784e-03  1.1552e-03  5.6250e-04  0:10:00 1464
   537  4.2062e-03  1.6691e-03  3.5191e-03  1.0322e-01  4.2027e-03  1.1262e-03  5.6448e-04  0:08:00 1463
   538  3.8309e-03  1.6945e-03  3.3862e-03  1.0483e-01  3.8259e-03  1.0962e-03  5.6068e-04  0:06:24 1462
   539  3.4600e-03  1.7143e-03  3.2562e-03  1.0628e-01  3.4534e-03  1.0658e-03  5.6066e-04  0:09:59 1461

  iter  continuity  x-velocity  y-velocity  z-velocity      energy           k       omega     time/iter
   540  3.0968e-03  1.7281e-03  3.1302e-03  1.0778e-01  3.0883e-03  1.0350e-03  5.5943e-04  0:07:59 1460
   541  2.7488e-03  1.7355e-03  3.0098e-03  1.0944e-01  2.7385e-03  1.0021e-03  5.5734e-04  0:06:23 1459
   542  2.4270e-03  1.7361e-03  2.8965e-03  1.1114e-01  2.4145e-03  9.7397e-04  5.5818e-04  0:09:58 1458
   543  2.1441e-03  1.7297e-03  2.7915e-03  1.1288e-01  2.1297e-03  9.4719e-04  5.5611e-04  0:07:58 1457
   544  1.9184e-03  1.7163e-03  2.6962e-03  1.1459e-01  1.9022e-03  9.2113e-04  5.5388e-04  0:06:22 1456
   545  1.7699e-03  1.6959e-03  2.6115e-03  1.1626e-01  1.7528e-03  8.9741e-04  5.5390e-04  0:05:05 1455
   546  1.7178e-03  1.6687e-03  2.5381e-03  1.1793e-01  1.7010e-03  8.7465e-04  5.4912e-04  0:08:55 1454
   547  1.7604e-03  1.6346e-03  2.4763e-03  1.1962e-01  1.7452e-03  8.5640e-04  5.4676e-04  0:07:08 1453
   548  1.8874e-03  1.5942e-03  2.4264e-03  1.2129e-01  1.8746e-03  8.4148e-04  5.4535e-04  0:05:42 1452
   549  2.0779e-03  1.5479e-03  2.3880e-03  1.2293e-01  2.0678e-03  8.2959e-04  5.4346e-04  0:09:23 1451
   550  2.3102e-03  1.4961e-03  2.3604e-03  1.2450e-01  2.3026e-03  8.1983e-04  5.4485e-04  0:07:30 1450

  iter  continuity  x-velocity  y-velocity  z-velocity      energy           k       omega     time/iter
   551  2.5660e-03  1.4393e-03  2.3428e-03  1.2603e-01  2.5606e-03  8.1314e-04  5.4573e-04  0:06:00 1449
   552  2.8325e-03  1.3784e-03  2.3336e-03  1.2747e-01  2.8289e-03  8.1004e-04  5.4779e-04  0:04:48 1448
   553  3.1013e-03  1.3143e-03  2.3312e-03  1.2883e-01  3.0992e-03  8.0966e-04  5.4924e-04  0:08:40 1447
   554  3.3626e-03  1.2474e-03  2.3342e-03  1.3014e-01  3.3618e-03  8.1189e-04  5.5086e-04  0:06:55 1446
   555  3.6147e-03  1.1793e-03  2.3407e-03  1.3140e-01  3.6149e-03  8.1292e-04  5.4373e-04  0:05:32 1445
   556  3.8547e-03  1.1110e-03  2.3493e-03  1.3261e-01  3.8558e-03  8.1956e-04  5.3590e-04  0:09:14 1444
   557  4.0804e-03  1.0441e-03  2.3584e-03  1.3375e-01  4.0821e-03  8.2696e-04  5.3123e-04  0:07:23 1443
   558  4.2902e-03  9.8004e-04  2.3667e-03  1.3478e-01  4.2924e-03  8.3461e-04  5.2813e-04  0:05:54 1442
   559  4.4815e-03  9.2079e-04  2.3730e-03  1.3568e-01  4.4841e-03  8.4316e-04  5.2701e-04  0:04:43 1441
   560  4.6545e-03  8.6872e-04  2.3761e-03  1.3643e-01  4.6574e-03  8.5213e-04  5.2691e-04  0:08:34 1440
   561  4.8081e-03  8.2466e-04  2.3756e-03  1.3700e-01  4.8111e-03  8.6158e-04  5.2747e-04  0:06:51 1439

  iter  continuity  x-velocity  y-velocity  z-velocity      energy           k       omega     time/iter
   562  4.9427e-03  7.9173e-04  2.3703e-03  1.3747e-01  4.9459e-03  8.7205e-04  5.2754e-04  0:05:29 1438
   563  5.0585e-03  7.7138e-04  2.3597e-03  1.3758e-01  5.0617e-03  8.8355e-04  5.1911e-04  0:09:10 1437
   564  5.1572e-03  7.6430e-04  2.3434e-03  1.3756e-01  5.1603e-03  8.9594e-04  5.0967e-04  0:07:20 1436
   565  5.2381e-03  7.7030e-04  2.3212e-03  1.3728e-01  5.2411e-03  9.0763e-04  5.0430e-04  0:05:52 1435
   566  5.3001e-03  7.8826e-04  2.2930e-03  1.3672e-01  5.3031e-03  9.2019e-04  5.0118e-04  0:04:41 1434
   567  5.3454e-03  8.1586e-04  2.2590e-03  1.3603e-01  5.3482e-03  9.3348e-04  4.9766e-04  0:08:31 1433
   568  5.3757e-03  8.5119e-04  2.2193e-03  1.3522e-01  5.3783e-03  9.4743e-04  4.9675e-04  0:06:49 1432
   569  5.3934e-03  8.9213e-04  2.1742e-03  1.3402e-01  5.3959e-03  9.6106e-04  4.9710e-04  0:05:27 1431
   570  5.3979e-03  9.3664e-04  2.1240e-03  1.3263e-01  5.4002e-03  9.7468e-04  4.9613e-04  0:09:07 1430
   571  5.3903e-03  9.8301e-04  2.0692e-03  1.3109e-01  5.3925e-03  9.8736e-04  4.9594e-04  0:07:18 1429
   572  5.3721e-03  1.0296e-03  2.0106e-03  1.2939e-01  5.3740e-03  9.9907e-04  4.9612e-04  0:05:50 1428

  iter  continuity  x-velocity  y-velocity  z-velocity      energy           k       omega     time/iter
   573  5.3401e-03  1.0752e-03  1.9489e-03  1.2762e-01  5.3419e-03  1.0102e-03  4.9636e-04  0:04:40 1427
   574  5.2987e-03  1.1187e-03  1.8848e-03  1.2575e-01  5.3003e-03  1.0204e-03  4.9648e-04  0:08:29 1426
   575  5.2473e-03  1.1595e-03  1.8190e-03  1.2391e-01  5.2488e-03  1.0300e-03  4.9685e-04  0:06:47 1425
   576  5.1863e-03  1.1969e-03  1.7524e-03  1.2195e-01  5.1876e-03  1.0384e-03  4.9699e-04  0:05:25 1424
   577  5.1099e-03  1.2303e-03  1.6862e-03  1.1982e-01  5.1112e-03  1.0453e-03  4.9857e-04  0:09:05 1423
   578  5.0323e-03  1.2593e-03  1.6214e-03  1.1756e-01  5.0335e-03  1.0512e-03  5.0093e-04  0:07:15 1422
   579  4.9400e-03  1.2836e-03  1.5589e-03  1.1516e-01  4.9410e-03  1.0562e-03  5.0390e-04  0:05:48 1421
   580  4.8397e-03  1.3030e-03  1.4999e-03  1.1266e-01  4.8407e-03  1.0604e-03  5.0610e-04  0:09:22 1420
   581  4.7410e-03  1.3174e-03  1.4453e-03  1.1016e-01  4.7420e-03  1.0633e-03  5.0743e-04  0:07:29 1419
   582  4.6444e-03  1.3266e-03  1.3965e-03  1.0762e-01  4.6454e-03  1.0650e-03  5.0629e-04  0:05:59 1418
   583  4.5442e-03  1.3306e-03  1.3544e-03  1.0508e-01  4.5451e-03  1.0658e-03  5.0629e-04  0:04:47 1417

  iter  continuity  x-velocity  y-velocity  z-velocity      energy           k       omega     time/iter
   584  4.4316e-03  1.3295e-03  1.3196e-03  1.0255e-01  4.4325e-03  1.0663e-03  5.0483e-04  0:08:33 1416
   585  4.3147e-03  1.3232e-03  1.2929e-03  1.0006e-01  4.3157e-03  1.0661e-03  5.0444e-04  0:06:50 1415
   586  4.1983e-03  1.3120e-03  1.2747e-03  9.7577e-02  4.1993e-03  1.0648e-03  5.0550e-04  0:05:28 1414
   587  4.0857e-03  1.2960e-03  1.2648e-03  9.5205e-02  4.0867e-03  1.0623e-03  5.0861e-04  0:09:05 1413
   588  3.9764e-03  1.2753e-03  1.2626e-03  9.2931e-02  3.9775e-03  1.0588e-03  5.1087e-04  0:07:15 1412
   589  3.8718e-03  1.2502e-03  1.2672e-03  9.0735e-02  3.8729e-03  1.0546e-03  5.1043e-04  0:05:48 1411
   590  3.7717e-03  1.2209e-03  1.2778e-03  8.8597e-02  3.7728e-03  1.0505e-03  5.0938e-04  0:09:20 1410
   591  3.6717e-03  1.1876e-03  1.2933e-03  8.6580e-02  3.6729e-03  1.0468e-03  5.0812e-04  0:07:28 1409
   592  3.5707e-03  1.1508e-03  1.3125e-03  8.4708e-02  3.5718e-03  1.0426e-03  5.0806e-04  0:05:58 1408
   593  3.4713e-03  1.1108e-03  1.3344e-03  8.3014e-02  3.4724e-03  1.0378e-03  5.1068e-04  0:09:28 1407
   594  3.3745e-03  1.0680e-03  1.3576e-03  8.1529e-02  3.3756e-03  1.0329e-03  5.1111e-04  0:07:34 1406

  iter  continuity  x-velocity  y-velocity  z-velocity      energy           k       omega     time/iter
   595  3.2808e-03  1.0228e-03  1.3813e-03  8.0307e-02  3.2819e-03  1.0280e-03  5.0629e-04  0:06:03 1405
   596  3.1871e-03  9.7564e-04  1.4045e-03  7.9259e-02  3.1882e-03  1.0223e-03  4.9944e-04  0:04:50 1404
   597  3.0926e-03  9.2693e-04  1.4265e-03  7.8378e-02  3.0936e-03  1.0166e-03  4.9212e-04  0:08:32 1403
   598  2.9989e-03  8.7719e-04  1.4464e-03  7.7699e-02  2.9998e-03  1.0111e-03  4.8755e-04  0:06:50 1402
   599  2.9049e-03  8.2689e-04  1.4639e-03  7.7285e-02  2.9057e-03  1.0044e-03  4.8169e-04  0:05:27 1401
   600  2.8100e-03  7.7657e-04  1.4783e-03  7.7095e-02  2.8106e-03  9.9697e-04  4.7649e-04  0:09:02 1400
   601  2.7139e-03  7.2683e-04  1.4893e-03  7.7082e-02  2.7144e-03  9.8866e-04  4.6981e-04  0:07:13 1399
   602  2.6164e-03  6.7820e-04  1.4967e-03  7.7322e-02  2.6167e-03  9.8021e-04  4.5814e-04  0:05:46 1398
   603  2.5178e-03  6.3133e-04  1.5003e-03  7.7707e-02  2.5179e-03  9.7140e-04  4.4886e-04  0:04:37 1397
   604  2.4176e-03  5.8688e-04  1.4999e-03  7.8213e-02  2.4175e-03  9.6240e-04  4.4346e-04  0:08:20 1396
   605  2.3155e-03  5.4548e-04  1.4958e-03  7.8953e-02  2.3152e-03  9.5260e-04  4.4022e-04  0:06:40 1395

  iter  continuity  x-velocity  y-velocity  z-velocity      energy           k       omega     time/iter
   606  2.2114e-03  5.0789e-04  1.4878e-03  7.9789e-02  2.2108e-03  9.4286e-04  4.3807e-04  0:05:20 1394
   607  2.1039e-03  4.7476e-04  1.4761e-03  8.0790e-02  2.1030e-03  9.3273e-04  4.3571e-04  0:08:54 1393
   608  1.9961e-03  4.4663e-04  1.4610e-03  8.1934e-02  1.9948e-03  9.2239e-04  4.3219e-04  0:07:07 1392
   609  1.8899e-03  4.2399e-04  1.4427e-03  8.3179e-02  1.8883e-03  9.1173e-04  4.3066e-04  0:05:41 1391
   610  1.7878e-03  4.0701e-04  1.4215e-03  8.4496e-02  1.7859e-03  9.0122e-04  4.3049e-04  0:09:11 1390
   611  1.6914e-03  3.9557e-04  1.3978e-03  8.6161e-02  1.6891e-03  8.9138e-04  4.3065e-04  0:07:20 1389
   612  1.6024e-03  3.8932e-04  1.3719e-03  8.7695e-02  1.5998e-03  8.8204e-04  4.2840e-04  0:05:52 1388
   613  1.5242e-03  3.8751e-04  1.3443e-03  8.9303e-02  1.5212e-03  8.7298e-04  4.2697e-04  0:04:41 1387
   614  1.4581e-03  3.8926e-04  1.3155e-03  9.0969e-02  1.4548e-03  8.6359e-04  4.2870e-04  0:08:22 1386
   615  1.4070e-03  3.9365e-04  1.2859e-03  9.2725e-02  1.4034e-03  8.6009e-04  4.2995e-04  0:06:41 1385
   616  1.3751e-03  4.0011e-04  1.2561e-03  9.4376e-02  1.3713e-03  8.4752e-04  4.2602e-04  0:05:21 1384

  iter  continuity  x-velocity  y-velocity  z-velocity      energy           k       omega     time/iter
   617  1.3583e-03  4.0665e-04  1.2263e-03  9.6010e-02  1.3543e-03  8.3674e-04  4.2399e-04  0:08:53 1383
   618  1.3602e-03  4.1350e-04  1.1971e-03  9.7601e-02  1.3561e-03  8.2740e-04  4.2449e-04  0:07:06 1382
   619  1.3810e-03  4.1990e-04  1.1690e-03  9.9151e-02  1.3769e-03  8.1814e-04  4.1944e-04  0:05:41 1381
   620  1.4184e-03  4.2538e-04  1.1423e-03  1.0065e-01  1.4144e-03  8.1027e-04  4.1446e-04  0:04:32 1380
   621  1.4695e-03  4.2958e-04  1.1173e-03  1.0210e-01  1.4656e-03  8.0324e-04  4.1161e-04  0:08:14 1379
   622  1.5314e-03  4.3226e-04  1.0943e-03  1.0351e-01  1.5277e-03  7.9688e-04  4.1135e-04  0:06:35 1378
   623  1.6009e-03  4.3330e-04  1.0735e-03  1.0485e-01  1.5974e-03  7.9132e-04  4.1222e-04  0:05:15 1377
   624  1.6759e-03  4.3270e-04  1.0549e-03  1.0605e-01  1.6726e-03  7.8627e-04  4.1091e-04  0:08:47 1376
[...]
  1838  8.9915e-05  2.7013e-05  6.5275e-05  6.7047e-04  8.7176e-05  2.1958e-05  2.2631e-05  0:00:56  162
  1839  9.0768e-05  2.6746e-05  6.4573e-05  6.8040e-04  8.8032e-05  2.1806e-05  2.2580e-05  0:00:45  161
  1840  9.1634e-05  2.6482e-05  6.3893e-05  6.9047e-04  8.8902e-05  2.1655e-05  2.2527e-05  0:00:36  160
  1841  9.2512e-05  2.6218e-05  6.3236e-05  7.0068e-04  8.9785e-05  2.1504e-05  2.2472e-05  0:01:00  159
  1842  9.3395e-05  2.5957e-05  6.2603e-05  7.1087e-04  9.0673e-05  2.1353e-05  2.2421e-05  0:00:48  158
  1843  9.4281e-05  2.5698e-05  6.1995e-05  7.2121e-04  9.1563e-05  2.1204e-05  2.2380e-05  0:00:38  157
  1844  9.5165e-05  2.5441e-05  6.1412e-05  7.3170e-04  9.2454e-05  2.1053e-05  2.2322e-05  0:01:01  156
  1845  9.6046e-05  2.5188e-05  6.0855e-05  7.4231e-04  9.3341e-05  2.0901e-05  2.2256e-05  0:00:49  155
  1846  9.6921e-05  2.4937e-05  6.0323e-05  7.5296e-04  9.4222e-05  2.0753e-05  2.2184e-05  0:00:39  154
  1847  9.7787e-05  2.4690e-05  5.9818e-05  7.6355e-04  9.5094e-05  2.0606e-05  2.2109e-05  0:01:01  153
  1848  9.8640e-05  2.4447e-05  5.9340e-05  7.7412e-04  9.5954e-05  2.0463e-05  2.2032e-05  0:01:19  152

  iter  continuity  x-velocity  y-velocity  z-velocity      energy           k       omega     time/iter
  1849  9.9480e-05  2.4207e-05  5.8889e-05  7.8470e-04  9.6801e-05  2.0323e-05  2.1950e-05  0:01:03  151
  1850  1.0031e-04  2.3972e-05  5.8465e-05  7.9514e-04  9.7634e-05  2.0184e-05  2.1862e-05  0:01:20  150
  1851  1.0111e-04  2.3741e-05  5.8068e-05  8.0546e-04  9.8445e-05  2.0047e-05  2.1773e-05  0:01:04  149
  1852  1.0189e-04  2.3515e-05  5.7699e-05  8.1574e-04  9.9233e-05  1.9912e-05  2.1701e-05  0:01:20  148
  1853  1.0264e-04  2.3294e-05  5.7357e-05  8.2577e-04  9.9995e-05  1.9779e-05  2.1636e-05  0:01:33  147
  1854  1.0337e-04  2.3078e-05  5.7043e-05  8.3559e-04  1.0073e-04  1.9647e-05  2.1565e-05  0:01:14  146
  1855  1.0407e-04  2.2867e-05  5.6755e-05  8.4529e-04  1.0144e-04  1.9518e-05  2.1486e-05  0:01:28  145
  1856  1.0474e-04  2.2662e-05  5.6495e-05  8.5469e-04  1.0212e-04  1.9391e-05  2.1401e-05  0:01:10  144
  1857  1.0538e-04  2.2463e-05  5.6261e-05  8.6376e-04  1.0276e-04  1.9265e-05  2.1313e-05  0:01:24  143
  1858  1.0599e-04  2.2271e-05  5.6054e-05  8.7271e-04  1.0337e-04  1.9143e-05  2.1223e-05  0:01:07  142
  1859  1.0656e-04  2.2085e-05  5.5873e-05  8.8118e-04  1.0395e-04  1.9021e-05  2.1132e-05  0:00:53  141

  iter  continuity  x-velocity  y-velocity  z-velocity      energy           k       omega     time/iter
  1860  1.0710e-04  2.1905e-05  5.5718e-05  8.8925e-04  1.0449e-04  1.8901e-05  2.1040e-05  0:01:10  140
  1861  1.0760e-04  2.1733e-05  5.5588e-05  8.9719e-04  1.0500e-04  1.8783e-05  2.0946e-05  0:00:56  139
  1862  1.0806e-04  2.1568e-05  5.5482e-05  9.0444e-04  1.0547e-04  1.8668e-05  2.0852e-05  0:00:44  138
  1863  1.0848e-04  2.1410e-05  5.5401e-05  9.1149e-04  1.0589e-04  1.8555e-05  2.0756e-05  0:01:03  137
  1864  1.0886e-04  2.1260e-05  5.5343e-05  9.1799e-04  1.0628e-04  1.8446e-05  2.0660e-05  0:00:50  136
  1865  1.0920e-04  2.1118e-05  5.5308e-05  9.2384e-04  1.0663e-04  1.8340e-05  2.0564e-05  0:00:39  135
  1866  1.0950e-04  2.0984e-05  5.5296e-05  9.2920e-04  1.0694e-04  1.8235e-05  2.0466e-05  0:00:31  134
  1867  1.0976e-04  2.0858e-05  5.5305e-05  9.3453e-04  1.0720e-04  1.8134e-05  2.0367e-05  0:00:51  133
  1868  1.0998e-04  2.0741e-05  5.5334e-05  9.3861e-04  1.0743e-04  1.8036e-05  2.0272e-05  0:00:41  132
  1869  1.1016e-04  2.0632e-05  5.5384e-05  9.4218e-04  1.0761e-04  1.7940e-05  2.0177e-05  0:00:32  131
  1870  1.1029e-04  2.0531e-05  5.5452e-05  9.4553e-04  1.0775e-04  1.7847e-05  2.0083e-05  0:00:52  130

  iter  continuity  x-velocity  y-velocity  z-velocity      energy           k       omega     time/iter
  1871  1.1039e-04  2.0439e-05  5.5539e-05  9.4843e-04  1.0785e-04  1.7758e-05  1.9987e-05  0:00:41  129
  1872  1.1044e-04  2.0356e-05  5.5644e-05  9.5090e-04  1.0790e-04  1.7673e-05  1.9895e-05  0:00:33  128
  1873  1.1045e-04  2.0282e-05  5.5765e-05  9.5289e-04  1.0792e-04  1.7593e-05  1.9804e-05  0:00:26  127
  1874  1.1042e-04  2.0216e-05  5.5902e-05  9.5438e-04  1.0789e-04  1.7515e-05  1.9716e-05  0:00:46  126
  1875  1.1035e-04  2.0159e-05  5.6054e-05  9.5491e-04  1.0783e-04  1.7442e-05  1.9630e-05  0:00:36  125
  1876  1.1023e-04  2.0111e-05  5.6220e-05  9.5548e-04  1.0772e-04  1.7373e-05  1.9544e-05  0:00:29  124
  1877  1.1008e-04  2.0072e-05  5.6398e-05  9.5565e-04  1.0757e-04  1.7309e-05  1.9462e-05  0:00:47  123
  1878  1.0989e-04  2.0041e-05  5.6589e-05  9.5536e-04  1.0738e-04  2.4453e-05  2.3764e-05  0:00:38  122
  1879  1.0966e-04  2.0019e-05  5.6791e-05  9.5464e-04  1.0716e-04  2.0934e-05  2.1662e-05  0:00:30  121
  1880  1.0940e-04  2.0005e-05  5.7002e-05  9.5344e-04  1.0690e-04  1.9134e-05  2.0544e-05  0:00:24  120
  1881  1.0909e-04  1.9999e-05  5.7223e-05  9.5175e-04  1.0660e-04  1.8359e-05  2.0008e-05  0:00:43  119

  iter  continuity  x-velocity  y-velocity  z-velocity      energy           k       omega     time/iter
  1882  1.0876e-04  2.0002e-05  5.7452e-05  9.4940e-04  1.0626e-04  1.7895e-05  1.9666e-05  0:00:34  118
  1883  1.0838e-04  2.0012e-05  5.7689e-05  9.4610e-04  1.0589e-04  1.7620e-05  1.9437e-05  0:00:27  117
  1884  1.0798e-04  2.0030e-05  5.7931e-05  9.4274e-04  1.0549e-04  1.7443e-05  1.9272e-05  0:00:44  116
  1885  1.0754e-04  2.0055e-05  5.8179e-05  9.3903e-04  1.0506e-04  1.7321e-05  1.9147e-05  0:00:35  115
  1886  1.0707e-04  2.0087e-05  5.8432e-05  9.3481e-04  1.0459e-04  1.7231e-05  1.9060e-05  0:00:28  114
  1887  1.0656e-04  2.0125e-05  5.8687e-05  9.3014e-04  1.0409e-04  1.7162e-05  1.8989e-05  0:00:45  113
  1888  1.0604e-04  2.0170e-05  5.8946e-05  9.2496e-04  1.0356e-04  1.7111e-05  1.8922e-05  0:00:36  112
  1889  1.0548e-04  2.0222e-05  5.9206e-05  9.1918e-04  1.0301e-04  1.7074e-05  1.8861e-05  0:00:28  111
  1890  1.0490e-04  2.0280e-05  5.9466e-05  9.1318e-04  1.0243e-04  1.7047e-05  1.8803e-05  0:00:22  110
  1891  1.0429e-04  2.0344e-05  5.9726e-05  9.0693e-04  1.0183e-04  1.7031e-05  1.8749e-05  0:00:39  109
  1892  1.0367e-04  2.0412e-05  5.9984e-05  9.0036e-04  1.0120e-04  1.7021e-05  1.8699e-05  0:00:31  108

  iter  continuity  x-velocity  y-velocity  z-velocity      energy           k       omega     time/iter
  1893  1.0302e-04  2.0485e-05  6.0241e-05  8.9345e-04  1.0056e-04  1.7014e-05  1.8652e-05  0:00:25  107
  1894  1.0234e-04  2.0561e-05  6.0494e-05  8.8601e-04  9.9888e-05  1.7017e-05  1.8605e-05  0:00:41  106
  1895  1.0165e-04  2.0641e-05  6.0744e-05  8.7827e-04  9.9201e-05  1.7026e-05  1.8560e-05  0:00:32  105
  1896  1.0095e-04  2.0724e-05  6.0989e-05  8.7030e-04  9.8497e-05  1.7042e-05  1.8518e-05  0:00:26  104
  1897  1.0023e-04  2.0811e-05  6.1229e-05  8.6206e-04  9.7779e-05  1.7066e-05  1.8484e-05  0:00:20  103
  1898  9.9496e-05  2.0900e-05  6.1462e-05  8.5338e-04  9.7049e-05  1.7093e-05  1.8451e-05  0:00:37  102
  1899  9.8753e-05  2.0992e-05  6.1688e-05  8.4453e-04  9.6307e-05  1.7125e-05  1.8421e-05  0:00:29  101
  1900  9.8000e-05  2.1085e-05  6.1906e-05  8.3553e-04  9.5556e-05  1.7159e-05  1.8390e-05  0:00:23  100
  1901  9.7239e-05  2.1180e-05  6.2116e-05  8.2623e-04  9.4797e-05  1.7197e-05  1.8371e-05  0:00:38   99
  1902  9.6471e-05  2.1276e-05  6.2317e-05  8.1662e-04  9.4031e-05  1.7239e-05  1.8369e-05  0:00:30   98
  1903  9.5698e-05  2.1372e-05  6.2507e-05  8.0696e-04  9.3260e-05  1.7287e-05  1.8369e-05  0:00:24   97

  iter  continuity  x-velocity  y-velocity  z-velocity      energy           k       omega     time/iter
  1904  9.4923e-05  2.1469e-05  6.2687e-05  7.9740e-04  9.2487e-05  1.7339e-05  1.8371e-05  0:00:19   96
  1905  9.4148e-05  2.1565e-05  6.2855e-05  7.8795e-04  9.1713e-05  1.7396e-05  1.8371e-05  0:00:34   95
  1906  9.3375e-05  2.1662e-05  6.3012e-05  7.7844e-04  9.0942e-05  1.7457e-05  1.8372e-05  0:00:27   94
  1907  9.2606e-05  2.1758e-05  6.3156e-05  7.6878e-04  9.0174e-05  1.7521e-05  1.8376e-05  0:00:21   93
  1908  9.1843e-05  2.1853e-05  6.3287e-05  7.5897e-04  8.9413e-05  1.7587e-05  1.8384e-05  0:00:35   92
  1909  9.1087e-05  2.1947e-05  6.3404e-05  7.4890e-04  8.8659e-05  1.7654e-05  1.8391e-05  0:00:28   91
  1910  9.0340e-05  2.2039e-05  6.3508e-05  7.3871e-04  8.7914e-05  1.7722e-05  1.8398e-05  0:00:22   90
  1911  8.9604e-05  2.2128e-05  6.3598e-05  7.2836e-04  8.7179e-05  1.7792e-05  1.8407e-05  0:00:17   89
  1912  8.8881e-05  2.2214e-05  6.3673e-05  7.1798e-04  8.6458e-05  1.7862e-05  1.8418e-05  0:00:31   88
  1913  8.8169e-05  2.2298e-05  6.3733e-05  7.0757e-04  8.5748e-05  1.7935e-05  1.8426e-05  0:00:25   87
  1914  8.7475e-05  2.2378e-05  6.3777e-05  6.9712e-04  8.5056e-05  1.8010e-05  1.8430e-05  0:00:20   86

  iter  continuity  x-velocity  y-velocity  z-velocity      energy           k       omega     time/iter
  1915  8.6802e-05  2.2455e-05  6.3806e-05  6.8664e-04  8.4385e-05  1.8086e-05  1.8439e-05  0:00:33   85
  1916  8.6151e-05  2.2529e-05  6.3818e-05  6.7665e-04  8.3736e-05  1.8164e-05  1.8458e-05  0:00:26   84
  1917  8.5523e-05  2.2600e-05  6.3814e-05  6.6698e-04  8.3111e-05  1.8244e-05  1.8477e-05  0:00:20   83
  1918  8.4921e-05  2.2666e-05  6.3794e-05  6.5743e-04  8.2511e-05  1.8324e-05  1.8495e-05  0:00:16   82
  1919  8.4344e-05  2.2728e-05  6.3757e-05  6.4801e-04  8.1937e-05  1.8406e-05  1.8512e-05  0:00:29   81
  1920  8.3794e-05  2.2786e-05  6.3703e-05  6.3870e-04  8.1391e-05  1.8489e-05  1.8528e-05  0:00:23   80
  1921  8.3276e-05  2.2839e-05  6.3632e-05  6.2962e-04  8.0877e-05  1.8565e-05  1.8546e-05  0:00:18   79
  1922  8.2789e-05  2.2887e-05  6.3544e-05  6.2072e-04  8.0395e-05  1.8639e-05  1.8562e-05  0:00:30   78
  1923  8.2336e-05  2.2931e-05  6.3439e-05  6.1194e-04  7.9947e-05  1.8719e-05  1.8576e-05  0:00:24   77
  1924  8.1917e-05  2.2970e-05  6.3317e-05  6.0336e-04  7.9533e-05  1.8803e-05  1.8590e-05  0:00:19   76
  1925  8.1534e-05  2.3003e-05  6.3178e-05  5.9504e-04  7.9156e-05  1.8888e-05  1.8605e-05  0:00:30   75

  iter  continuity  x-velocity  y-velocity  z-velocity      energy           k       omega     time/iter
  1926  8.1188e-05  2.3031e-05  6.3021e-05  5.8694e-04  7.8816e-05  1.8975e-05  1.8621e-05  0:00:23   74
  1927  8.0880e-05  2.3054e-05  6.2848e-05  5.7910e-04  7.8514e-05  1.9064e-05  1.9139e-05  0:00:18   73
  1928  8.0858e-05  2.3099e-05  6.2688e-05  5.7156e-04  7.8506e-05  1.9150e-05  1.9017e-05  0:00:15   72
  1929  8.0467e-05  2.3092e-05  6.2455e-05  5.6419e-04  7.8119e-05  1.9245e-05  1.8880e-05  0:00:26   71
  1930  8.0186e-05  2.3091e-05  6.2231e-05  5.5707e-04  7.7844e-05  1.9337e-05  1.8798e-05  0:00:20   70
  1931  8.0031e-05  2.3093e-05  6.1990e-05  5.5030e-04  7.7698e-05  1.9428e-05  1.8774e-05  0:00:16   69
  1932  7.9934e-05  2.3089e-05  6.1734e-05  5.4361e-04  7.7611e-05  1.9516e-05  1.8771e-05  0:00:26   68
  1933  7.9874e-05  2.3078e-05  6.1463e-05  5.3718e-04  7.7562e-05  1.9602e-05  1.8784e-05  0:00:21   67
  1934  7.9854e-05  2.3062e-05  6.1176e-05  5.3121e-04  7.7552e-05  1.9686e-05  1.8785e-05  0:00:16   66
  1935  7.9875e-05  2.3040e-05  6.0874e-05  5.2538e-04  7.7585e-05  1.9769e-05  1.8788e-05  0:00:13   65
  1936  7.9937e-05  2.3012e-05  6.0557e-05  5.2004e-04  7.7659e-05  1.9851e-05  1.8786e-05  0:00:23   64

  iter  continuity  x-velocity  y-velocity  z-velocity      energy           k       omega     time/iter
  1937  8.0041e-05  2.2979e-05  6.0226e-05  5.1459e-04  7.7776e-05  1.9930e-05  1.8786e-05  0:00:18   63
  1938  8.0185e-05  2.2940e-05  5.9881e-05  5.1004e-04  7.7933e-05  2.0008e-05  1.8787e-05  0:00:14   62
  1939  8.0369e-05  2.2896e-05  5.9522e-05  5.0565e-04  7.8131e-05  2.0083e-05  1.8788e-05  0:00:23   61
  1940  8.0593e-05  2.2846e-05  5.9151e-05  5.0172e-04  7.8369e-05  2.0155e-05  1.8790e-05  0:00:18   60
  1941  8.0855e-05  2.2791e-05  5.8766e-05  4.9809e-04  7.8645e-05  2.0224e-05  1.8792e-05  0:00:14   59
  1942  8.1153e-05  2.2731e-05  5.8369e-05  4.9449e-04  7.8958e-05  2.0292e-05  1.8794e-05  0:00:11   58
  1943  8.1487e-05  2.2665e-05  5.7961e-05  4.9098e-04  7.9307e-05  2.0358e-05  1.8794e-05  0:00:20   57
  1944  8.1855e-05  2.2594e-05  5.7541e-05  4.8776e-04  7.9690e-05  2.0421e-05  1.8795e-05  0:00:16   56
  1945  8.2256e-05  2.2518e-05  5.7111e-05  4.8478e-04  8.0107e-05  2.0481e-05  1.8794e-05  0:00:13   55
  1946  8.2687e-05  2.2438e-05  5.6670e-05  4.8209e-04  8.0554e-05  2.0538e-05  1.8791e-05  0:00:21   54
  1947  8.3148e-05  2.2352e-05  5.6220e-05  4.7976e-04  8.1031e-05  2.0591e-05  1.8789e-05  0:00:16   53

  iter  continuity  x-velocity  y-velocity  z-velocity      energy           k       omega     time/iter
  1948  8.3637e-05  2.2262e-05  5.5761e-05  4.7797e-04  8.1535e-05  2.0642e-05  1.8788e-05  0:00:13   52
  1949  8.4151e-05  2.2167e-05  5.5294e-05  4.7576e-04  8.2066e-05  2.0692e-05  1.8788e-05  0:00:20   51
  1950  8.4689e-05  2.2068e-05  5.4819e-05  4.7368e-04  8.2619e-05  2.0738e-05  1.8787e-05  0:00:16   50
  1951  8.5249e-05  2.1964e-05  5.4337e-05  4.7196e-04  8.3195e-05  2.0783e-05  1.8788e-05  0:00:12   49
  1952  8.5827e-05  2.1857e-05  5.3848e-05  4.7042e-04  8.3789e-05  2.0822e-05  1.8792e-05  0:00:10   48
  1953  8.6424e-05  2.1746e-05  5.3353e-05  4.6907e-04  8.4401e-05  2.0859e-05  1.8794e-05  0:00:17   47
  1954  8.7036e-05  2.1631e-05  5.2853e-05  4.6789e-04  8.5029e-05  2.0890e-05  1.8796e-05  0:00:13   46
  1955  8.7661e-05  2.1512e-05  5.2349e-05  4.6679e-04  8.5669e-05  2.0920e-05  1.8799e-05  0:00:10   45
  1956  8.8298e-05  2.1390e-05  5.1840e-05  4.6577e-04  8.6321e-05  2.0946e-05  1.8802e-05  0:00:17   44
  1957  8.8943e-05  2.1265e-05  5.1328e-05  4.6481e-04  8.6981e-05  2.0970e-05  1.8807e-05  0:00:13   43
  1958  8.9596e-05  2.1137e-05  5.0814e-05  4.6392e-04  8.7648e-05  2.0993e-05  1.8811e-05  0:00:10   42

  iter  continuity  x-velocity  y-velocity  z-velocity      energy           k       omega     time/iter
  1959  9.0253e-05  2.1005e-05  5.0297e-05  4.6314e-04  8.8319e-05  2.1013e-05  1.8813e-05  0:00:08   41
  1960  9.0913e-05  2.0872e-05  4.9779e-05  4.6248e-04  8.8993e-05  2.1030e-05  1.8816e-05  0:00:14   40
  1961  9.1573e-05  2.0735e-05  4.9260e-05  4.6193e-04  8.9666e-05  2.1045e-05  1.8817e-05  0:00:11   39
  1962  9.2231e-05  2.0596e-05  4.8742e-05  4.6150e-04  9.0338e-05  2.1058e-05  1.8817e-05  0:00:09   38
  1963  9.2887e-05  2.0455e-05  4.8224e-05  4.6115e-04  9.1006e-05  2.1069e-05  1.8818e-05  0:00:14   37
  1964  9.3536e-05  2.0312e-05  4.7707e-05  4.6090e-04  9.1667e-05  2.1078e-05  1.8816e-05  0:00:11   36
  1965  9.4178e-05  2.0168e-05  4.7192e-05  4.6074e-04  9.2321e-05  2.1082e-05  1.8812e-05  0:00:09   35
  1966  9.4811e-05  2.0022e-05  4.6679e-05  4.6061e-04  9.2965e-05  2.1083e-05  1.8807e-05  0:00:07   34
  1967  9.5432e-05  1.9874e-05  4.6169e-05  4.6052e-04  9.3597e-05  2.1081e-05  1.8802e-05  0:00:12   33
  1968  9.6041e-05  1.9725e-05  4.5664e-05  4.6045e-04  9.4216e-05  2.1077e-05  1.8800e-05  0:00:09   32
  1969  9.6634e-05  1.9576e-05  4.5162e-05  4.6039e-04  9.4820e-05  2.1071e-05  1.8795e-05  0:00:07   31

  iter  continuity  x-velocity  y-velocity  z-velocity      energy           k       omega     time/iter
  1970  9.7212e-05  1.9425e-05  4.4666e-05  4.6030e-04  9.5407e-05  2.1060e-05  1.8788e-05  0:00:11   30
  1971  9.7771e-05  1.9273e-05  4.4175e-05  4.6020e-04  9.5976e-05  2.1047e-05  1.8780e-05  0:00:09   29
  1972  9.8311e-05  1.9121e-05  4.3690e-05  4.6012e-04  9.6525e-05  2.1029e-05  1.8769e-05  0:00:07   28
  1973  9.8831e-05  1.8969e-05  4.3211e-05  4.6004e-04  9.7052e-05  2.1008e-05  1.8758e-05  0:00:05   27
  1974  9.9328e-05  1.8817e-05  4.2740e-05  4.5994e-04  9.7558e-05  2.0983e-05  1.8746e-05  0:00:09   26
  1975  9.9802e-05  1.8665e-05  4.2277e-05  4.5981e-04  9.8039e-05  2.0955e-05  1.8732e-05  0:00:07   25
  1976  1.0025e-04  1.8513e-05  4.1822e-05  4.5970e-04  9.8495e-05  2.0925e-05  1.8719e-05  0:00:05   24
  1977  1.0068e-04  1.8361e-05  4.1376e-05  4.5960e-04  9.8926e-05  2.0893e-05  1.8704e-05  0:00:09   23
  1978  1.0107e-04  1.8210e-05  4.0939e-05  4.5953e-04  9.9328e-05  2.0859e-05  1.8687e-05  0:00:07   22
  1979  1.0144e-04  1.8059e-05  4.0512e-05  4.5946e-04  9.9703e-05  2.0824e-05  1.8670e-05  0:00:05   21
  1980  1.0178e-04  1.7909e-05  4.0095e-05  4.5939e-04  1.0005e-04  2.0787e-05  1.8652e-05  0:00:08   20

  iter  continuity  x-velocity  y-velocity  z-velocity      energy           k       omega     time/iter
  1981  1.0209e-04  1.7761e-05  3.9689e-05  4.5939e-04  1.0037e-04  2.0749e-05  1.8632e-05  0:00:06   19
  1982  1.0237e-04  1.7613e-05  3.9295e-05  4.5943e-04  1.0065e-04  2.0710e-05  1.8611e-05  0:00:05   18
  1983  1.0262e-04  1.7467e-05  3.8911e-05  4.5951e-04  1.0091e-04  2.0667e-05  1.8588e-05  0:00:07   17
  1984  1.0284e-04  1.7323e-05  3.8540e-05  4.5961e-04  1.0113e-04  2.0622e-05  1.8561e-05  0:00:05   16
  1985  1.0303e-04  1.7180e-05  3.8181e-05  4.5969e-04  1.0132e-04  2.0574e-05  1.8531e-05  0:00:04   15
  1986  1.0319e-04  1.7039e-05  3.7835e-05  4.5988e-04  1.0148e-04  2.0524e-05  1.8500e-05  0:00:03   14
  1987  1.0331e-04  1.6900e-05  3.7502e-05  4.6016e-04  1.0161e-04  2.0473e-05  1.8467e-05  0:00:05   13
  1988  1.0340e-04  1.6763e-05  3.7183e-05  4.6051e-04  1.0170e-04  2.0420e-05  1.8433e-05  0:00:04   12
  1989  1.0346e-04  1.6628e-05  3.6877e-05  4.6093e-04  1.0176e-04  2.0365e-05  1.8400e-05  0:00:03   11
  1990  1.0349e-04  1.6495e-05  3.6586e-05  4.6130e-04  1.0179e-04  2.0308e-05  1.8366e-05  0:00:04   10
  1991  1.0348e-04  1.6365e-05  3.6308e-05  4.6134e-04  1.0178e-04  2.0250e-05  1.8329e-05  0:00:03    9

  iter  continuity  x-velocity  y-velocity  z-velocity      energy           k       omega     time/iter
  1992  1.0344e-04  1.6238e-05  3.6046e-05  4.6113e-04  1.0174e-04  2.0190e-05  1.8290e-05  0:00:02    8
  1993  1.0337e-04  1.6113e-05  3.5799e-05  4.6080e-04  1.0168e-04  2.0126e-05  1.8243e-05  0:00:03    7
  1994  1.0327e-04  1.5992e-05  3.5566e-05  4.6039e-04  1.0157e-04  2.0056e-05  1.8193e-05  0:00:02    6
  1995  1.0313e-04  1.5873e-05  3.5349e-05  4.5997e-04  1.0144e-04  1.9984e-05  1.8144e-05  0:00:01    5
  1996  1.0297e-04  1.5757e-05  3.5148e-05  4.5956e-04  1.0128e-04  1.9913e-05  1.8095e-05  0:00:01    4
  1997  1.0278e-04  1.5644e-05  3.4962e-05  4.5921e-04  1.0108e-04  1.9843e-05  1.8050e-05  0:00:01    3
  1998  1.0255e-04  1.5535e-05  3.4793e-05  4.5893e-04  1.0086e-04  1.9774e-05  1.8012e-05  0:00:01    2
  1999  1.0230e-04  1.5429e-05  3.4639e-05  4.5870e-04  1.0061e-04  1.9704e-05  1.7972e-05  0:00:00    1
  2000  1.0202e-04  1.5327e-05  3.4501e-05  4.5852e-04  1.0033e-04  1.9633e-05  1.7928e-05  0:00:00    0

> 
adjoint/                parallel/               server/
define/                 parametric-study/       solve/
display/                plot/                   surface/
exit                    preferences/            turbo-workflow/
file/                   print-license-usage     views/
mesh/                   report/

> /file/write-case-data project1
Fast-loading "C:\PROGRA~1\ANSYSI~1\v231\fluent\fluent23.1.0\\addons\afd\lib\hdfio.bin"
Done.

Writing to Engs-30669:"C:\Users\kebl7595\Desktop\CFD\Runs\Viscous\finer\project1.cas.h5" in NODE0 mode and compression level 1 ...
       58800 cells,     1 zone  ...
      197272 faces,     8 zones ...
       80096 nodes,     1 zone  ...
  Done.
Done.

Writing to Engs-30669:"C:\Users\kebl7595\Desktop\CFD\Runs\Viscous\finer\project1.dat.h5" in NODE0 mode and compression level 1 ...
  Writing results.
Done.

> /file/export/ascii "./surface.dat" wing te () no pressure mach-number quit no

Writing "./surface.dat"...

Writing information to ascii file ...
Done.


> /plot/plot y "pressuredata.dat" no n n pressure-coefficient no n x-coordinate wing ()

> /plot/plot y "frictiondata.dat" no n n skin-friction-coef no n x-coordinate wing ()

> /exit

Posting ANSYS Product Improvement Program performance data 
Done.
Auto-Transcript Stop Time:  10:27:15, 21 May 2024 GMT Daylight Time 
Total Transcript Time: 11 Minute 20 Second.
