Auto-Transcript Start Time:  12:40:44, 22 May 2024 GMT Daylight Time 
Current Directory: "C:\Users\kebl7595\Desktop\CFD\Runs\Flap\Re 3e5\Different Flap\AR 1;5"

              Welcome to ANSYS Fluent 2023 R1

              Copyright 1987-2023 ANSYS, Inc. All Rights Reserved.
              Unauthorized use, distribution or duplication is prohibited.
              This product is subject to U.S. laws governing export and re-export.
              For full Legal Notice, see documentation.

Build Time: Nov 28 2022 09:52:02 EST  Build Id: 10208  
 
Connected License Server List:	1055@ansyslic.eng.ox.ac.uk

*********************************************
Info: Your license enables 4-way parallel execution.
For faster simulations, please start the application with the appropriate parallel options.
*********************************************


     --------------------------------------------------------------
     This is an academic version of ANSYS FLUENT. Usage of this product
     license is limited to the terms and conditions specified in your ANSYS
     license form, additional terms section.
     --------------------------------------------------------------
Host spawning Node 0 on machine "Engs-30669" (win64).

------------------------------------------------------------------------------------
ID    Hostname    Core  O.S.         PID    Vendor                                 
------------------------------------------------------------------------------------
n0    Engs-30669  1/32  Windows-x64  22688  13th Gen Intel(R) Core(TM) i9-13900    
host  Engs-30669        Windows-x64  41540  13th Gen Intel(R) Core(TM) i9-13900    

MPI Option Selected: intel
------------------------------------------------------------------------------------

Cleanup script file is C:\\Users\\kebl7595\\Desktop\\CFD\\Runs\\Flap\\Re 3e5\\Different Flap\\AR 1;5\\cleanup-fluent-Engs-30669-41540.bat

Posting ANSYS Product Improvement Program startup data
Done.

Reading journal file C:/Users/kebl7595/Desktop/CFD/Runs/Flap/Re 3e5/Different Flap/AR 1;5/project1.jou...

> /file/set-batch-options no no no 

> 
define/                 parametric-study/       solve/
display/                plot/                   surface/
exit                    preferences/            switch-to-meshing-mode
file/                   print-license-usage     turbo-workflow/
mesh/                   report/                 views/
parallel/               server/

> /file/import/cgns/mesh  "./project1.cgns"
Engs-30669 has other FLUENT parallel processes running.                       Process affinity not being set.

Importing "./project1.cgns"

Opening library "C:\\PROGRA~1\\ANSYSI~1\\v231\\fluent\\fluent23.1.0\\vki\\win64\\devtools4.4.6.dll"... done.

Read    26064 nodes
   18972 hexahedral cells, zone  1
   13800 quadrilateral wall faces, zone  2.
   49542 quadrilateral interior faces, zone  3.
     474 quadrilateral interface faces, zone  4.

Building...
     mesh
     materials,
     interface,
     domains,
     zones,
	interface-default_subface
	default_interior-1
	default_subface
	default
     parallel,
The automatic selection for flux type has changed to Rhie-Chow: momentum based.

Done.


> 
adjoint/                parallel/               server/
define/                 parametric-study/       solve/
display/                plot/                   surface/
exit                    preferences/            turbo-workflow/
file/                   print-license-usage     views/
mesh/                   report/

> /define/models/solver/density-based-implicit yes

> 
adjoint/                parallel/               server/
define/                 parametric-study/       solve/
display/                plot/                   surface/
exit                    preferences/            turbo-workflow/
file/                   print-license-usage     views/
mesh/                   report/

> /define/models/energy? yes yes invalid command [yes]
yes

> /define/models/viscous/kw-standard? yes

> 
adjoint/                parallel/               server/
define/                 parametric-study/       solve/
display/                plot/                   surface/
exit                    preferences/            turbo-workflow/
file/                   print-license-usage     views/
mesh/                   report/

> /define/materials/change-create air air air is a fluid
yes 
Density
ideal-gas no data required.

no no no no no no

> 
adjoint/                parallel/               server/
define/                 parametric-study/       solve/
display/                plot/                   surface/
exit                    preferences/            turbo-workflow/
file/                   print-license-usage     views/
mesh/                   report/

> /mesh/modify-zones/sep-face-zone-angle 2 90 yes

 6324 faces in contiguous region 0
 339 faces in contiguous region 1
 618 faces in contiguous region 2
 6324 faces in contiguous region 3
 195 faces in contiguous region 4
 Separates zone 2 into 5 zone(s).
Updating new zone information...
   created new zone default_subface:009 from default_subface
   created new zone default_subface:008 from default_subface
   created new zone default_subface:007 from default_subface
   created new zone default_subface:006 from default_subface
done.

> 
adjoint/                parallel/               server/
define/                 parametric-study/       solve/
display/                plot/                   surface/
exit                    preferences/            turbo-workflow/
file/                   print-license-usage     views/
mesh/                   report/

> /define/boundary-conditions/zone-name  6 wing

> /define/boundary-conditions/zone-name  2 sym1

> /define/boundary-conditions/zone-name  8 sym2

> 
adjoint/                parallel/               server/
define/                 parametric-study/       solve/
display/                plot/                   surface/
exit                    preferences/            turbo-workflow/
file/                   print-license-usage     views/
mesh/                   report/

> /define/boundary-conditions/zone-name  7 far1

> /define/boundary-conditions/zone-name 9 far2

> 
adjoint/                parallel/               server/
define/                 parametric-study/       solve/
display/                plot/                   surface/
exit                    preferences/            turbo-workflow/
file/                   print-license-usage     views/
mesh/                   report/

> /define/boundary-conditions/zone-type  7 pressure-far-field

> /define/boundary-conditions/zone-type 9 pressure-far-field

> /define/boundary-conditions/zone-type  2 symmetry

> /define/boundary-conditions/zone-type  8 symmetry

> 
adjoint/                parallel/               server/
define/                 parametric-study/       solve/
display/                plot/                   surface/
exit                    preferences/            turbo-workflow/
file/                   print-license-usage     views/
mesh/                   report/

> /define/boundary-conditions/pressure-far-field (far2 far1)
far1 no -0.8642 no 0.1 no 300 yes no 0.939693 no -0.342020 no 0. no yes 5 0.02

> /define/boundary-conditions/pressure-far-field (far2 far1)
far2 no -0.8642 no 0.1 no 300 yes no 0.939693 no -0.342020 no 0. no yes 5 0.02

> 
adjoint/                parallel/               server/
define/                 parametric-study/       solve/
display/                plot/                   surface/
exit                    preferences/            turbo-workflow/
file/                   print-license-usage     views/
mesh/                   report/

> /solve/initialize/compute-defaults/pressure-far-field (far2 far1)
far1

> /solve/initialize/initialize-flow

> 
adjoint/                parallel/               server/
define/                 parametric-study/       solve/
display/                plot/                   surface/
exit                    preferences/            turbo-workflow/
file/                   print-license-usage     views/
mesh/                   report/

> /solve/monitors/residual/convergence-criteria 1.e-9 1.e-9 1.e-9 1.e-9 1.e-9 1.e-9 1.e-9

> /solve/iterate 2000

  iter  continuity  x-velocity  y-velocity  z-velocity      energy           k       omega     time/iter
     1  1.0000e+00  1.0000e+00  1.0000e+00  1.0000e+00  1.0000e+00  5.0880e-02  4.9941e-02  0:00:00 1999
     2  5.1561e-01  5.3322e-01  4.9754e-01  1.0000e+00  5.1580e-01  4.5273e-02  3.8420e-02  0:00:00 1998
     3  2.7363e-01  2.9697e-01  2.6599e-01  1.0000e+00  2.7366e-01  4.0619e-02  3.3280e-02  0:00:00 1997
     4  1.6869e-01  1.6508e-01  1.6983e-01  8.7261e-01  1.6861e-01  3.6832e-02  2.9696e-02  0:33:16 1996
     5  1.2775e-01  1.0788e-01  1.2728e-01  9.7495e-01  1.2765e-01  3.3741e-02  2.7471e-02  0:26:36 1995
     6  1.0716e-01  8.2099e-02  1.0749e-01  1.0892e+00  1.0709e-01  3.1047e-02  2.5616e-02  0:21:16 1994
     7  9.1673e-02  7.1461e-02  9.9607e-02  1.1753e+00  9.1648e-02  2.8667e-02  2.3995e-02  0:17:00 1993
     8  8.1666e-02  6.6955e-02  9.4882e-02  1.1850e+00  8.1669e-02  2.6582e-02  2.2510e-02  0:13:36 1992
     9  7.8056e-02  6.2468e-02  9.1299e-02  1.1795e+00  7.8070e-02  2.4853e-02  2.1170e-02  0:10:52 1991
    10  7.2041e-02  5.8524e-02  8.8593e-02  1.1712e+00  7.2039e-02  2.3340e-02  2.0026e-02  0:08:42 1990
    11  6.6686e-02  5.5847e-02  8.6830e-02  1.1458e+00  6.6660e-02  2.1991e-02  1.8989e-02  0:06:57 1989

  iter  continuity  x-velocity  y-velocity  z-velocity      energy           k       omega     time/iter
    12  6.5061e-02  5.2377e-02  8.5102e-02  1.1298e+00  6.5024e-02  2.0792e-02  1.8056e-02  0:05:34 1988
    13  6.2524e-02  5.1452e-02  8.3292e-02  1.1124e+00  6.2481e-02  1.9746e-02  1.7194e-02  0:04:27 1987
    14  6.1959e-02  4.9905e-02  8.0509e-02  1.1392e+00  6.1913e-02  1.8816e-02  1.6398e-02  0:03:33 1986
    15  6.1161e-02  4.8940e-02  7.7971e-02  1.2140e+00  6.1118e-02  1.8017e-02  1.5712e-02  0:09:28 1985
    16  6.0376e-02  4.8283e-02  7.5320e-02  1.3141e+00  6.0323e-02  1.7331e-02  1.5095e-02  0:07:34 1984
    17  5.8977e-02  4.6497e-02  7.4026e-02  1.4331e+00  5.8920e-02  1.6712e-02  1.4524e-02  0:06:03 1983
    18  5.8423e-02  4.5710e-02  7.1661e-02  1.5880e+00  5.8359e-02  1.6199e-02  1.4038e-02  0:04:50 1982
    19  5.8080e-02  4.4351e-02  6.8711e-02  1.7453e+00  5.8008e-02  1.5750e-02  1.3573e-02  0:03:52 1981
    20  5.8367e-02  4.2350e-02  6.6424e-02  1.8825e+00  5.8285e-02  1.5336e-02  1.3164e-02  0:03:05 1980
    21  5.8838e-02  4.0658e-02  6.3593e-02  1.9902e+00  5.8751e-02  1.5015e-02  1.2769e-02  0:02:28 1979
    22  5.8674e-02  3.8299e-02  6.0600e-02  2.0679e+00  5.8582e-02  1.4697e-02  1.2425e-02  0:01:59 1978

  iter  continuity  x-velocity  y-velocity  z-velocity      energy           k       omega     time/iter
    23  5.9192e-02  3.6696e-02  5.8343e-02  2.1048e+00  5.9092e-02  1.4467e-02  1.2089e-02  0:01:35 1977
    24  5.9019e-02  3.5266e-02  5.6081e-02  2.1072e+00  5.8914e-02  1.4190e-02  1.1780e-02  0:01:16 1976
    25  5.8325e-02  3.4430e-02  5.4242e-02  2.0730e+00  5.8213e-02  1.3979e-02  1.1500e-02  0:01:01 1975
    26  5.8060e-02  3.3842e-02  5.2119e-02  2.0130e+00  5.7942e-02  1.3785e-02  1.1243e-02  0:07:23 1974
    27  5.6877e-02  3.3065e-02  5.0371e-02  1.9258e+00  5.6752e-02  1.3590e-02  1.0988e-02  0:05:54 1973
    28  5.5462e-02  3.2295e-02  4.9029e-02  1.8191e+00  5.5326e-02  1.3512e-02  1.0752e-02  0:04:43 1972
    29  5.3771e-02  3.1647e-02  4.7078e-02  1.7052e+00  5.3624e-02  1.3291e-02  1.0503e-02  0:03:47 1971
    30  5.1773e-02  3.0561e-02  4.5033e-02  1.5875e+00  5.1614e-02  1.3157e-02  1.0268e-02  0:03:01 1970
    31  4.9854e-02  2.9606e-02  4.3104e-02  1.4772e+00  4.9685e-02  1.2930e-02  1.0034e-02  0:02:25 1969
    32  4.7911e-02  2.8466e-02  4.1089e-02  1.3822e+00  4.7731e-02  1.2753e-02  9.8025e-03  0:01:56 1968
    33  4.6074e-02  2.7253e-02  3.9275e-02  1.3069e+00  4.5883e-02  1.2484e-02  9.5684e-03  0:01:33 1967

  iter  continuity  x-velocity  y-velocity  z-velocity      energy           k       omega     time/iter
    34  4.4050e-02  2.6193e-02  3.7778e-02  1.2592e+00  4.3848e-02  1.2228e-02  9.3220e-03  0:07:47 1966
    35  4.2296e-02  2.5293e-02  3.6554e-02  1.2075e+00  4.2085e-02  1.2013e-02  9.0978e-03  0:06:14 1965
    36  4.0582e-02  2.4469e-02  3.5663e-02  1.1610e+00  4.0364e-02  1.1757e-02  8.8743e-03  0:04:59 1964
    37  3.8914e-02  2.3891e-02  3.5071e-02  1.1171e+00  3.8690e-02  1.1520e-02  8.6454e-03  0:03:59 1963
    38  3.7604e-02  2.3441e-02  3.4677e-02  1.0729e+00  3.7377e-02  1.1371e-02  8.4488e-03  0:03:11 1962
    39  3.6182e-02  2.3063e-02  3.4563e-02  1.0266e+00  3.5953e-02  1.1195e-02  8.2713e-03  0:02:33 1961
    40  3.4654e-02  2.2684e-02  3.4650e-02  9.7638e-01  3.4422e-02  1.1035e-02  8.1020e-03  0:02:02 1960
    41  3.3007e-02  2.2482e-02  3.4856e-02  9.2394e-01  3.2772e-02  1.0931e-02  7.9296e-03  0:01:38 1959
    42  3.0869e-02  2.2317e-02  3.5158e-02  8.6907e-01  3.0627e-02  1.0846e-02  7.7725e-03  0:01:18 1958
    43  2.8686e-02  2.2012e-02  3.5526e-02  8.1485e-01  2.8435e-02  1.0732e-02  7.6128e-03  0:01:02 1957
    44  2.6657e-02  2.1686e-02  3.5841e-02  7.6734e-01  2.6398e-02  1.0639e-02  7.4646e-03  0:07:21 1956

  iter  continuity  x-velocity  y-velocity  z-velocity      energy           k       omega     time/iter
    45  2.5616e-02  2.1390e-02  3.6174e-02  7.2893e-01  2.5359e-02  1.0565e-02  7.3163e-03  0:05:53 1955
    46  2.4521e-02  2.1126e-02  3.6636e-02  7.0701e-01  2.4264e-02  1.0461e-02  7.1670e-03  0:04:42 1954
    47  2.4239e-02  2.0901e-02  3.7038e-02  7.0100e-01  2.3991e-02  1.0351e-02  7.0072e-03  0:03:46 1953
    48  2.4430e-02  2.0800e-02  3.7461e-02  7.0964e-01  2.4196e-02  1.0211e-02  6.8743e-03  0:03:00 1952
    49  2.4577e-02  2.0722e-02  3.7893e-02  7.3001e-01  2.4355e-02  1.0113e-02  6.7437e-03  0:02:24 1951
    50  2.4651e-02  2.0672e-02  3.8304e-02  7.5860e-01  2.4439e-02  1.0040e-02  6.6307e-03  0:01:55 1950
    51  2.4732e-02  2.0678e-02  3.8738e-02  7.9060e-01  2.4530e-02  1.0004e-02  6.5068e-03  0:01:32 1949
    52  2.4577e-02  2.0794e-02  3.9073e-02  8.2174e-01  2.4379e-02  1.0012e-02  6.4054e-03  0:01:14 1948
    53  2.4188e-02  2.0883e-02  3.9235e-02  8.4931e-01  2.3992e-02  9.9973e-03  6.3090e-03  0:00:59 1947
    54  2.3580e-02  2.0924e-02  3.9209e-02  8.6957e-01  2.3382e-02  1.0007e-02  6.2060e-03  0:07:16 1946
    55  2.2774e-02  2.0885e-02  3.8979e-02  8.8200e-01  2.2571e-02  1.0031e-02  6.1168e-03  0:05:49 1945

  iter  continuity  x-velocity  y-velocity  z-velocity      energy           k       omega     time/iter
    56  2.1989e-02  2.0757e-02  3.8661e-02  8.9327e-01  2.1779e-02  1.0041e-02  6.0505e-03  0:04:39 1944
    57  2.1175e-02  2.0458e-02  3.8225e-02  8.9399e-01  2.0956e-02  1.0035e-02  5.9899e-03  0:03:43 1943
    58  2.0138e-02  2.0034e-02  3.7648e-02  8.8408e-01  1.9905e-02  1.0040e-02  5.9101e-03  0:02:58 1942
    59  1.9224e-02  1.9569e-02  3.6906e-02  8.6216e-01  1.8975e-02  1.0037e-02  5.8581e-03  0:02:23 1941
    60  1.8460e-02  1.9030e-02  3.6065e-02  8.2931e-01  1.8197e-02  1.0023e-02  5.8057e-03  0:01:54 1940
    61  1.7886e-02  1.8480e-02  3.5153e-02  7.8825e-01  1.7609e-02  1.0019e-02  5.7483e-03  0:01:31 1939
    62  1.7359e-02  1.7890e-02  3.4146e-02  7.4094e-01  1.7068e-02  1.0001e-02  5.6980e-03  0:01:13 1938
    63  1.7092e-02  1.7359e-02  3.3083e-02  6.8853e-01  1.6793e-02  1.0020e-02  5.6597e-03  0:00:58 1937
    64  1.7024e-02  1.6856e-02  3.2013e-02  6.3325e-01  1.6721e-02  1.0035e-02  5.6273e-03  0:00:47 1936
    65  1.6993e-02  1.6401e-02  3.0938e-02  5.8278e-01  1.6687e-02  1.0047e-02  5.5833e-03  0:07:04 1935
    66  1.6817e-02  1.6026e-02  2.9830e-02  5.4544e-01  1.6507e-02  1.0068e-02  5.5417e-03  0:05:39 1934

  iter  continuity  x-velocity  y-velocity  z-velocity      energy           k       omega     time/iter
    67  1.6627e-02  1.5717e-02  2.8712e-02  5.2713e-01  1.6314e-02  1.0111e-02  5.5072e-03  0:04:31 1933
    68  1.6339e-02  1.5434e-02  2.7579e-02  5.3583e-01  1.6022e-02  1.0169e-02  5.4671e-03  0:03:37 1932
    69  1.6109e-02  1.5192e-02  2.6455e-02  5.7313e-01  1.5790e-02  1.0247e-02  5.4298e-03  0:02:53 1931
    70  1.5969e-02  1.4978e-02  2.5370e-02  6.3367e-01  1.5651e-02  1.0328e-02  5.3961e-03  0:02:19 1930
    71  1.5666e-02  1.4792e-02  2.4306e-02  7.1047e-01  1.5348e-02  1.0391e-02  5.3515e-03  0:01:51 1929
    72  1.5665e-02  1.4649e-02  2.3269e-02  7.9469e-01  1.5355e-02  1.0460e-02  5.3108e-03  0:01:29 1928
    73  1.5791e-02  1.4544e-02  2.2291e-02  8.8094e-01  1.5492e-02  1.0560e-02  5.2714e-03  0:01:11 1927
    74  1.5983e-02  1.4456e-02  2.1348e-02  9.6383e-01  1.5697e-02  1.0654e-02  5.2345e-03  0:00:57 1926
    75  1.6162e-02  1.4393e-02  2.0514e-02  1.0401e+00  1.5889e-02  1.0738e-02  5.1874e-03  0:07:10 1925
    76  1.6176e-02  1.4332e-02  1.9744e-02  1.1074e+00  1.5915e-02  1.0826e-02  5.1513e-03  0:05:44 1924
    77  1.6098e-02  1.4289e-02  1.9045e-02  1.1636e+00  1.5849e-02  1.0947e-02  5.1087e-03  0:04:35 1923

  iter  continuity  x-velocity  y-velocity  z-velocity      energy           k       omega     time/iter
    78  1.5952e-02  1.4268e-02  1.8422e-02  1.2073e+00  1.5713e-02  1.1088e-02  5.0678e-03  0:03:40 1922
    79  1.5801e-02  1.4265e-02  1.7881e-02  1.2381e+00  1.5575e-02  1.1252e-02  5.0151e-03  0:02:56 1921
    80  1.5673e-02  1.4266e-02  1.7433e-02  1.2550e+00  1.5460e-02  1.1424e-02  4.9687e-03  0:02:21 1920
    81  1.5672e-02  1.4273e-02  1.7093e-02  1.2606e+00  1.5475e-02  1.1603e-02  4.9359e-03  0:01:52 1919
    82  1.5865e-02  1.4291e-02  1.6855e-02  1.2556e+00  1.5686e-02  1.1780e-02  4.8816e-03  0:01:30 1918
    83  1.6139e-02  1.4322e-02  1.6723e-02  1.2429e+00  1.5979e-02  1.1973e-02  4.8207e-03  0:01:12 1917
    84  1.6464e-02  1.4384e-02  1.6696e-02  1.2217e+00  1.6323e-02  1.2195e-02  4.7730e-03  0:00:57 1916
    85  1.6829e-02  1.4467e-02  1.6747e-02  1.1948e+00  1.6707e-02  1.2410e-02  4.7333e-03  0:07:09 1915
    86  1.7097e-02  1.4568e-02  1.6870e-02  1.1602e+00  1.6992e-02  1.2640e-02  4.6881e-03  0:05:43 1914
    87  1.7184e-02  1.4682e-02  1.7044e-02  1.1228e+00  1.7094e-02  1.2864e-02  4.6443e-03  0:04:34 1913
    88  1.7191e-02  1.4808e-02  1.7251e-02  1.0857e+00  1.7115e-02  1.3083e-02  4.5987e-03  0:03:39 1912

  iter  continuity  x-velocity  y-velocity  z-velocity      energy           k       omega     time/iter
    89  1.7003e-02  1.4945e-02  1.7463e-02  1.0507e+00  1.6939e-02  1.3331e-02  4.5469e-03  0:02:55 1911
    90  1.6685e-02  1.5091e-02  1.7673e-02  1.0197e+00  1.6633e-02  1.3578e-02  4.4890e-03  0:02:20 1910
    91  1.6320e-02  1.5253e-02  1.7854e-02  9.9421e-01  1.6279e-02  1.3803e-02  4.4573e-03  0:01:52 1909
    92  1.5992e-02  1.5413e-02  1.8015e-02  9.7531e-01  1.5962e-02  1.4002e-02  4.4260e-03  0:01:30 1908
    93  1.5702e-02  1.5571e-02  1.8153e-02  9.5800e-01  1.5682e-02  1.4276e-02  4.3886e-03  0:01:12 1907
    94  1.5446e-02  1.5719e-02  1.8263e-02  9.4478e-01  1.5436e-02  1.4561e-02  4.3446e-03  0:00:57 1906
    95  1.5220e-02  1.5880e-02  1.8316e-02  9.3503e-01  1.5217e-02  1.4828e-02  4.3067e-03  0:07:07 1905
    96  1.5033e-02  1.6047e-02  1.8307e-02  9.2628e-01  1.5036e-02  1.5035e-02  4.2784e-03  0:05:41 1904
    97  1.4897e-02  1.6204e-02  1.8252e-02  9.1896e-01  1.4907e-02  1.5300e-02  4.2548e-03  0:04:33 1903
    98  1.4859e-02  1.6357e-02  1.8152e-02  9.1301e-01  1.4872e-02  1.5536e-02  4.2265e-03  0:03:38 1902
    99  1.4898e-02  1.6514e-02  1.7994e-02  9.0751e-01  1.4914e-02  1.5764e-02  4.2034e-03  0:02:54 1901

  iter  continuity  x-velocity  y-velocity  z-velocity      energy           k       omega     time/iter
   100  1.4924e-02  1.6680e-02  1.7776e-02  9.0114e-01  1.4942e-02  1.5962e-02  4.1679e-03  0:02:19 1900
   101  1.4817e-02  1.6858e-02  1.7502e-02  8.9115e-01  1.4835e-02  1.6061e-02  4.1455e-03  0:01:52 1899
   102  1.4709e-02  1.7048e-02  1.7179e-02  8.7943e-01  1.4727e-02  1.6179e-02  4.1221e-03  0:01:29 1898
   103  1.4593e-02  1.7256e-02  1.6814e-02  8.6708e-01  1.4609e-02  1.6381e-02  4.0873e-03  0:01:11 1897
   104  1.4511e-02  1.7480e-02  1.6415e-02  8.5684e-01  1.4524e-02  1.6554e-02  4.0597e-03  0:00:57 1896
   105  1.4478e-02  1.7714e-02  1.5990e-02  8.4905e-01  1.4488e-02  1.6703e-02  4.0095e-03  0:07:05 1895
   106  1.4547e-02  1.7958e-02  1.5544e-02  8.4318e-01  1.4553e-02  1.6807e-02  3.9544e-03  0:05:39 1894
   107  1.4730e-02  1.8217e-02  1.5087e-02  8.3558e-01  1.4731e-02  1.6809e-02  3.9098e-03  0:04:31 1893
   108  1.4956e-02  1.8484e-02  1.4638e-02  8.2627e-01  1.4952e-02  1.6732e-02  3.8808e-03  0:03:37 1892
   109  1.5418e-02  1.8763e-02  1.4210e-02  8.2048e-01  1.5409e-02  1.6782e-02  3.8557e-03  0:02:54 1891
   110  1.6107e-02  1.9056e-02  1.3813e-02  8.1776e-01  1.6092e-02  1.6937e-02  3.8232e-03  0:02:19 1890

  iter  continuity  x-velocity  y-velocity  z-velocity      energy           k       omega     time/iter
   111  1.7117e-02  1.9376e-02  1.3420e-02  8.1876e-01  1.7096e-02  1.7022e-02  3.7809e-03  0:01:51 1889
   112  1.8370e-02  1.9695e-02  1.3077e-02  8.2386e-01  1.8344e-02  1.7043e-02  3.7420e-03  0:01:29 1888
   113  1.9712e-02  2.0016e-02  1.2795e-02  8.3602e-01  1.9682e-02  1.7137e-02  3.7135e-03  0:01:11 1887
   114  2.1630e-02  2.0347e-02  1.2583e-02  8.4472e-01  2.1596e-02  1.7190e-02  3.6757e-03  0:00:57 1886
   115  2.3786e-02  2.0690e-02  1.2443e-02  8.4807e-01  2.3748e-02  1.7155e-02  3.6311e-03  0:00:45 1885
   116  2.5858e-02  2.0969e-02  1.2371e-02  8.5388e-01  2.5818e-02  1.7025e-02  3.5896e-03  0:06:53 1884
   117  2.7850e-02  2.1175e-02  1.2380e-02  8.6738e-01  2.7806e-02  1.6887e-02  3.5701e-03  0:05:30 1883
   118  3.0083e-02  2.1365e-02  1.2460e-02  8.8348e-01  3.0037e-02  1.6911e-02  3.5486e-03  0:04:24 1882
   119  3.2408e-02  2.1516e-02  1.2600e-02  9.0211e-01  3.2360e-02  1.6966e-02  3.5132e-03  0:03:31 1881
   120  3.4494e-02  2.1605e-02  1.2796e-02  9.2013e-01  3.4444e-02  1.7034e-02  3.4872e-03  0:02:49 1880
   121  3.6463e-02  2.1701e-02  1.3028e-02  9.3301e-01  3.6410e-02  1.7099e-02  3.4690e-03  0:02:15 1879

  iter  continuity  x-velocity  y-velocity  z-velocity      energy           k       omega     time/iter
   122  3.8122e-02  2.1786e-02  1.3291e-02  9.3763e-01  3.8068e-02  1.7138e-02  3.4374e-03  0:01:48 1878
   123  3.9423e-02  2.1928e-02  1.3569e-02  9.4843e-01  3.9368e-02  1.7193e-02  3.4192e-03  0:01:26 1877
   124  4.0423e-02  2.2092e-02  1.3870e-02  9.6365e-01  4.0366e-02  1.7274e-02  3.4120e-03  0:01:09 1876
   125  4.1140e-02  2.2243e-02  1.4206e-02  9.7316e-01  4.1083e-02  1.7330e-02  3.3941e-03  0:00:55 1875
   126  4.1600e-02  2.2386e-02  1.4564e-02  9.8623e-01  4.1542e-02  1.7294e-02  3.3895e-03  0:06:59 1874
   127  4.1850e-02  2.2532e-02  1.4940e-02  1.0038e+00  4.1791e-02  1.7263e-02  3.3874e-03  0:05:35 1873
   128  4.1929e-02  2.2708e-02  1.5329e-02  1.0241e+00  4.1869e-02  1.7204e-02  3.4015e-03  0:04:28 1872
   129  4.1848e-02  2.2881e-02  1.5700e-02  1.0483e+00  4.1787e-02  1.7184e-02  3.4147e-03  0:03:34 1871
   130  4.1619e-02  2.3052e-02  1.6055e-02  1.0727e+00  4.1557e-02  1.7199e-02  3.4272e-03  0:02:51 1870
   131  4.1306e-02  2.3229e-02  1.6385e-02  1.0975e+00  4.1243e-02  1.7307e-02  3.4414e-03  0:02:17 1869
   132  4.1031e-02  2.3402e-02  1.6682e-02  1.1246e+00  4.0968e-02  1.7423e-02  3.4404e-03  0:01:49 1868

  iter  continuity  x-velocity  y-velocity  z-velocity      energy           k       omega     time/iter
   133  4.0861e-02  2.3570e-02  1.6943e-02  1.1547e+00  4.0796e-02  1.7560e-02  3.4393e-03  0:01:28 1867
   134  4.0826e-02  2.3762e-02  1.7155e-02  1.1884e+00  4.0758e-02  1.7704e-02  3.4511e-03  0:01:10 1866
   135  4.0922e-02  2.3992e-02  1.7312e-02  1.2222e+00  4.0853e-02  1.7826e-02  3.4635e-03  0:00:56 1865
   136  4.1124e-02  2.4258e-02  1.7418e-02  1.2607e+00  4.1053e-02  1.7913e-02  3.4967e-03  0:06:58 1864
   137  4.1428e-02  2.4539e-02  1.7476e-02  1.2970e+00  4.1355e-02  1.8016e-02  3.5218e-03  0:05:34 1863
   138  4.1825e-02  2.4846e-02  1.7488e-02  1.3315e+00  4.1750e-02  1.8048e-02  3.5392e-03  0:04:27 1862
   139  4.2298e-02  2.5174e-02  1.7461e-02  1.3632e+00  4.2220e-02  1.8150e-02  3.5711e-03  0:03:33 1861
   140  4.2813e-02  2.5522e-02  1.7393e-02  1.3902e+00  4.2733e-02  1.8240e-02  3.5897e-03  0:02:51 1860
   141  4.3319e-02  2.5910e-02  1.7299e-02  1.4010e+00  4.3236e-02  1.8317e-02  3.6180e-03  0:02:16 1859
   142  4.3783e-02  2.6334e-02  1.7188e-02  1.4135e+00  4.3697e-02  1.8310e-02  3.6462e-03  0:01:49 1858
   143  4.4169e-02  2.6785e-02  1.7073e-02  1.4323e+00  4.4081e-02  1.8231e-02  3.6817e-03  0:01:27 1857

  iter  continuity  x-velocity  y-velocity  z-velocity      energy           k       omega     time/iter
   144  4.4475e-02  2.7220e-02  1.6955e-02  1.4395e+00  4.4385e-02  1.8094e-02  3.6767e-03  0:01:10 1856
   145  4.4670e-02  2.7627e-02  1.6846e-02  1.4558e+00  4.4577e-02  1.7875e-02  3.6752e-03  0:00:56 1855
   146  4.4745e-02  2.8017e-02  1.6749e-02  1.4720e+00  4.4650e-02  1.7613e-02  3.6864e-03  0:06:55 1854
   147  4.4669e-02  2.8398e-02  1.6655e-02  1.4879e+00  4.4572e-02  1.7253e-02  3.6956e-03  0:05:32 1853
   148  4.4432e-02  2.8749e-02  1.6554e-02  1.4863e+00  4.4334e-02  1.6941e-02  3.7074e-03  0:04:26 1852
   149  4.4029e-02  2.9052e-02  1.6430e-02  1.4854e+00  4.3930e-02  1.6669e-02  3.6948e-03  0:03:32 1851
   150  4.3456e-02  2.9296e-02  1.6277e-02  1.5029e+00  4.3355e-02  1.6377e-02  3.6686e-03  0:02:50 1850
   151  4.2713e-02  2.9496e-02  1.6109e-02  1.5326e+00  4.2612e-02  1.6192e-02  3.6466e-03  0:02:16 1849
   152  4.1810e-02  2.9663e-02  1.5931e-02  1.5699e+00  4.1708e-02  1.5980e-02  3.6157e-03  0:01:49 1848
   153  4.0760e-02  2.9802e-02  1.5736e-02  1.6078e+00  4.0657e-02  1.5702e-02  3.5957e-03  0:01:27 1847
   154  3.9583e-02  2.9923e-02  1.5530e-02  1.6426e+00  3.9480e-02  1.5540e-02  3.5597e-03  0:01:09 1846

  iter  continuity  x-velocity  y-velocity  z-velocity      energy           k       omega     time/iter
   155  3.8286e-02  3.0038e-02  1.5322e-02  1.6749e+00  3.8183e-02  1.5364e-02  3.5242e-03  0:00:55 1845
   156  3.6882e-02  3.0143e-02  1.5116e-02  1.6884e+00  3.6779e-02  1.5085e-02  3.4870e-03  0:06:53 1844
   157  3.5413e-02  3.0232e-02  1.4922e-02  1.7007e+00  3.5309e-02  1.4883e-02  3.4543e-03  0:05:30 1843
   158  3.3932e-02  3.0298e-02  1.4736e-02  1.7147e+00  3.3828e-02  1.4559e-02  3.4313e-03  0:04:24 1842
   159  3.2483e-02  3.0338e-02  1.4569e-02  1.7335e+00  3.2378e-02  1.4344e-02  3.4063e-03  0:03:31 1841
   160  3.1072e-02  3.0360e-02  1.4424e-02  1.7557e+00  3.0967e-02  1.4142e-02  3.3676e-03  0:02:49 1840
   161  2.9749e-02  3.0363e-02  1.4304e-02  1.7486e+00  2.9644e-02  1.3925e-02  3.3343e-03  0:02:15 1839
   162  2.8458e-02  3.0334e-02  1.4206e-02  1.7325e+00  2.8351e-02  1.3774e-02  3.3051e-03  0:01:48 1838
   163  2.7231e-02  3.0274e-02  1.4153e-02  1.7192e+00  2.7124e-02  1.3608e-02  3.2791e-03  0:01:26 1837
   164  2.6101e-02  3.0187e-02  1.4141e-02  1.7147e+00  2.5994e-02  1.3379e-02  3.2452e-03  0:01:09 1836
   165  2.5018e-02  3.0079e-02  1.4176e-02  1.7220e+00  2.4910e-02  1.3141e-02  3.2265e-03  0:00:55 1835

  iter  continuity  x-velocity  y-velocity  z-velocity      energy           k       omega     time/iter
   166  2.3960e-02  2.9952e-02  1.4254e-02  1.7345e+00  2.3853e-02  1.2893e-02  3.2116e-03  0:00:44 1834
   167  2.2954e-02  2.9807e-02  1.4375e-02  1.7405e+00  2.2846e-02  1.2639e-02  3.2169e-03  0:06:42 1833
   168  2.2018e-02  2.9641e-02  1.4537e-02  1.7243e+00  2.1911e-02  1.2358e-02  3.2091e-03  0:05:21 1832
   169  2.1121e-02  2.9455e-02  1.4739e-02  1.7000e+00  2.1015e-02  1.2074e-02  3.1964e-03  0:04:17 1831
   170  2.0332e-02  2.9254e-02  1.4976e-02  1.6829e+00  2.0228e-02  1.1837e-02  3.1872e-03  0:03:25 1830
   171  1.9545e-02  2.9038e-02  1.5232e-02  1.6750e+00  1.9442e-02  1.1686e-02  3.1864e-03  0:02:44 1829
   172  1.8867e-02  2.8811e-02  1.5505e-02  1.6737e+00  1.8765e-02  1.1572e-02  3.1948e-03  0:02:11 1828
   173  1.8295e-02  2.8581e-02  1.5790e-02  1.6808e+00  1.8196e-02  1.1478e-02  3.1940e-03  0:01:45 1827
   174  1.7879e-02  2.8344e-02  1.6080e-02  1.6901e+00  1.7784e-02  1.1351e-02  3.1837e-03  0:01:24 1826
   175  1.7683e-02  2.8102e-02  1.6367e-02  1.6996e+00  1.7591e-02  1.1222e-02  3.1908e-03  0:01:07 1825
   176  1.7739e-02  2.7860e-02  1.6647e-02  1.7109e+00  1.7652e-02  1.1089e-02  3.1991e-03  0:06:58 1824

  iter  continuity  x-velocity  y-velocity  z-velocity      energy           k       omega     time/iter
   177  1.7978e-02  2.7607e-02  1.6904e-02  1.7250e+00  1.7895e-02  1.1024e-02  3.1948e-03  0:05:35 1823
   178  1.8505e-02  2.7351e-02  1.7126e-02  1.7418e+00  1.8428e-02  1.1008e-02  3.1988e-03  0:04:28 1822
   179  1.9196e-02  2.7090e-02  1.7321e-02  1.7551e+00  1.9123e-02  1.0987e-02  3.1974e-03  0:03:34 1821
   180  1.9967e-02  2.6817e-02  1.7464e-02  1.7675e+00  1.9898e-02  1.1002e-02  3.1919e-03  0:02:51 1820
   181  2.0773e-02  2.6532e-02  1.7564e-02  1.7781e+00  2.0708e-02  1.1025e-02  3.1810e-03  0:02:17 1819
   182  2.1486e-02  2.6230e-02  1.7615e-02  1.7835e+00  2.1424e-02  1.1033e-02  3.1544e-03  0:01:49 1818
   183  2.2097e-02  2.5902e-02  1.7619e-02  1.7798e+00  2.2038e-02  1.1048e-02  3.1369e-03  0:01:27 1817
   184  2.2470e-02  2.5541e-02  1.7585e-02  1.7787e+00  2.2414e-02  1.1033e-02  3.1222e-03  0:01:10 1816
   185  2.2607e-02  2.5153e-02  1.7517e-02  1.7765e+00  2.2553e-02  1.0964e-02  3.1122e-03  0:00:56 1815
   186  2.2443e-02  2.4727e-02  1.7409e-02  1.7646e+00  2.2392e-02  1.0903e-02  3.0934e-03  0:06:47 1814
   187  2.2008e-02  2.4263e-02  1.7268e-02  1.7476e+00  2.1959e-02  1.0834e-02  3.0856e-03  0:05:26 1813

  iter  continuity  x-velocity  y-velocity  z-velocity      energy           k       omega     time/iter
   188  2.1350e-02  2.3758e-02  1.7109e-02  1.7309e+00  2.1304e-02  1.0781e-02  3.0719e-03  0:04:21 1812
   189  2.0384e-02  2.3204e-02  1.6937e-02  1.7149e+00  2.0341e-02  1.0721e-02  3.0570e-03  0:03:28 1811
   190  1.9237e-02  2.2601e-02  1.6755e-02  1.6972e+00  1.9198e-02  1.0642e-02  3.0278e-03  0:02:47 1810
   191  1.8226e-02  2.1962e-02  1.6569e-02  1.6747e+00  1.8189e-02  1.0542e-02  2.9974e-03  0:02:13 1809
   192  1.7282e-02  2.1297e-02  1.6393e-02  1.6539e+00  1.7248e-02  1.0436e-02  2.9565e-03  0:01:46 1808
   193  1.6454e-02  2.0612e-02  1.6240e-02  1.6317e+00  1.6424e-02  1.0313e-02  2.9087e-03  0:01:25 1807
   194  1.5805e-02  1.9904e-02  1.6115e-02  1.6018e+00  1.5778e-02  1.0105e-02  2.8619e-03  0:01:08 1806
   195  1.5330e-02  1.9177e-02  1.6026e-02  1.5761e+00  1.5305e-02  9.8827e-03  2.8254e-03  0:00:54 1805
   196  1.5219e-02  1.8452e-02  1.5973e-02  1.5541e+00  1.5196e-02  9.6630e-03  2.7801e-03  0:06:44 1804
   197  1.4718e-02  1.7703e-02  1.5954e-02  1.5345e+00  1.4696e-02  9.4593e-03  2.7381e-03  0:05:23 1803
   198  1.4339e-02  1.6971e-02  1.5984e-02  1.5072e+00  1.4319e-02  9.3188e-03  2.7100e-03  0:04:18 1802

  iter  continuity  x-velocity  y-velocity  z-velocity      energy           k       omega     time/iter
   199  1.4033e-02  1.6264e-02  1.6055e-02  1.4906e+00  1.4014e-02  9.2214e-03  2.6643e-03  0:03:27 1801
   200  1.3744e-02  1.5598e-02  1.6164e-02  1.4767e+00  1.3726e-02  9.1370e-03  2.6201e-03  0:02:45 1800
   201  1.3366e-02  1.4977e-02  1.6317e-02  1.4713e+00  1.3348e-02  9.0355e-03  2.5818e-03  0:02:12 1799
   202  1.3016e-02  1.4406e-02  1.6508e-02  1.4692e+00  1.2999e-02  8.9312e-03  2.5409e-03  0:01:46 1798
   203  1.2140e-02  1.3882e-02  1.6728e-02  1.4697e+00  1.2123e-02  8.8289e-03  2.5171e-03  0:01:24 1797
   204  1.1187e-02  1.3407e-02  1.6974e-02  1.4718e+00  1.1169e-02  8.7127e-03  2.4812e-03  0:01:08 1796
   205  1.0307e-02  1.2979e-02  1.7243e-02  1.4738e+00  1.0289e-02  8.5969e-03  2.4472e-03  0:00:54 1795
   206  9.7291e-03  1.2601e-02  1.7534e-02  1.4787e+00  9.7089e-03  8.4825e-03  2.4182e-03  0:06:42 1794
   207  9.2943e-03  1.2269e-02  1.7842e-02  1.4860e+00  9.2714e-03  8.3900e-03  2.3870e-03  0:05:21 1793
   208  8.8871e-03  1.1976e-02  1.8164e-02  1.4988e+00  8.8608e-03  8.3236e-03  2.3452e-03  0:04:17 1792
   209  8.6235e-03  1.1715e-02  1.8496e-02  1.5133e+00  8.5934e-03  8.2541e-03  2.3085e-03  0:03:25 1791

  iter  continuity  x-velocity  y-velocity  z-velocity      energy           k       omega     time/iter
   210  8.6625e-03  1.1491e-02  1.8839e-02  1.5372e+00  8.6286e-03  8.1986e-03  2.2853e-03  0:02:44 1790
   211  8.9693e-03  1.1317e-02  1.9185e-02  1.5613e+00  8.9320e-03  8.1392e-03  2.2528e-03  0:02:11 1789
   212  9.4633e-03  1.1184e-02  1.9532e-02  1.5856e+00  9.4230e-03  8.0646e-03  2.2248e-03  0:01:45 1788
   213  1.0037e-02  1.1083e-02  1.9880e-02  1.6073e+00  9.9944e-03  7.9950e-03  2.1996e-03  0:01:24 1787
   214  1.0717e-02  1.1002e-02  2.0222e-02  1.6246e+00  1.0672e-02  7.9133e-03  2.1825e-03  0:01:07 1786
   215  1.1452e-02  1.0944e-02  2.0549e-02  1.6401e+00  1.1406e-02  7.8400e-03  2.1721e-03  0:06:51 1785
   216  1.2243e-02  1.0925e-02  2.0883e-02  1.6575e+00  1.2195e-02  7.7672e-03  2.1633e-03  0:05:28 1784
   217  1.3078e-02  1.0944e-02  2.1225e-02  1.6733e+00  1.3029e-02  7.6850e-03  2.1555e-03  0:04:23 1783
   218  1.3946e-02  1.1004e-02  2.1569e-02  1.6815e+00  1.3895e-02  7.5908e-03  2.1494e-03  0:03:30 1782
   219  1.4833e-02  1.1103e-02  2.1912e-02  1.6887e+00  1.4782e-02  7.5133e-03  2.1395e-03  0:02:48 1781
   220  1.5739e-02  1.1241e-02  2.2253e-02  1.6928e+00  1.5687e-02  7.4332e-03  2.1407e-03  0:02:14 1780

  iter  continuity  x-velocity  y-velocity  z-velocity      energy           k       omega     time/iter
   221  1.6685e-02  1.1424e-02  2.2588e-02  1.6954e+00  1.6632e-02  7.3562e-03  2.1383e-03  0:01:47 1779
   222  1.7639e-02  1.1651e-02  2.2915e-02  1.6962e+00  1.7586e-02  7.2773e-03  2.1448e-03  0:01:26 1778
   223  1.8581e-02  1.1926e-02  2.3232e-02  1.7048e+00  1.8528e-02  7.1888e-03  2.1518e-03  0:01:09 1777
   224  1.9486e-02  1.2251e-02  2.3534e-02  1.7167e+00  1.9432e-02  7.0961e-03  2.1597e-03  0:00:55 1776
   225  2.0368e-02  1.2628e-02  2.3821e-02  1.7304e+00  2.0313e-02  7.0135e-03  2.1675e-03  0:00:44 1775
   226  2.1262e-02  1.3049e-02  2.4092e-02  1.7493e+00  2.1207e-02  6.9139e-03  2.1694e-03  0:06:30 1774
   227  2.2168e-02  1.3501e-02  2.4339e-02  1.7715e+00  2.2113e-02  6.8224e-03  2.1769e-03  0:05:12 1773
   228  2.3074e-02  1.3981e-02  2.4560e-02  1.8026e+00  2.3018e-02  6.7378e-03  2.1939e-03  0:04:09 1772
   229  2.3943e-02  1.4497e-02  2.4765e-02  1.8332e+00  2.3888e-02  6.6503e-03  2.2048e-03  0:03:19 1771
   230  2.4779e-02  1.5052e-02  2.4945e-02  1.8728e+00  2.4724e-02  6.5669e-03  2.2173e-03  0:02:39 1770
   231  2.5606e-02  1.5634e-02  2.5099e-02  1.9128e+00  2.5550e-02  6.4915e-03  2.2356e-03  0:02:07 1769

  iter  continuity  x-velocity  y-velocity  z-velocity      energy           k       omega     time/iter
   232  2.6427e-02  1.6232e-02  2.5224e-02  1.9457e+00  2.6370e-02  6.4351e-03  2.2625e-03  0:01:42 1768
   233  2.7226e-02  1.6846e-02  2.5316e-02  1.9750e+00  2.7169e-02  6.3923e-03  2.3017e-03  0:01:21 1767
   234  2.7983e-02  1.7466e-02  2.5374e-02  2.0000e+00  2.7926e-02  6.3624e-03  2.3476e-03  0:06:58 1766
   235  2.8699e-02  1.8088e-02  2.5402e-02  2.0275e+00  2.8642e-02  6.3289e-03  2.3809e-03  0:05:34 1765
   236  2.9378e-02  1.8710e-02  2.5403e-02  2.0539e+00  2.9321e-02  6.2946e-03  2.4149e-03  0:04:27 1764
   237  3.0017e-02  1.9321e-02  2.5368e-02  2.0807e+00  2.9959e-02  6.2603e-03  2.4452e-03  0:03:34 1763
   238  3.0603e-02  1.9929e-02  2.5308e-02  2.1062e+00  3.0546e-02  6.2389e-03  2.4734e-03  0:02:51 1762
   239  3.1147e-02  2.0524e-02  2.5225e-02  2.1354e+00  3.1090e-02  6.2153e-03  2.5026e-03  0:02:17 1761
   240  3.1562e-02  2.1099e-02  2.5123e-02  2.1661e+00  3.1506e-02  6.1985e-03  2.5404e-03  0:01:49 1760
   241  3.1830e-02  2.1643e-02  2.5018e-02  2.1821e+00  3.1775e-02  6.1921e-03  2.5722e-03  0:01:27 1759
   242  3.2006e-02  2.2148e-02  2.4896e-02  2.1895e+00  3.1952e-02  6.1973e-03  2.5980e-03  0:01:10 1758

  iter  continuity  x-velocity  y-velocity  z-velocity      energy           k       omega     time/iter
   243  3.2110e-02  2.2632e-02  2.4764e-02  2.1991e+00  3.2057e-02  6.1912e-03  2.6214e-03  0:06:47 1757
   244  3.2163e-02  2.3081e-02  2.4622e-02  2.2032e+00  3.2111e-02  6.1846e-03  2.6648e-03  0:05:26 1756
   245  3.2175e-02  2.3502e-02  2.4473e-02  2.2056e+00  3.2126e-02  6.1918e-03  2.7074e-03  0:04:20 1755
   246  3.2111e-02  2.3901e-02  2.4310e-02  2.2147e+00  3.2063e-02  6.1891e-03  2.7566e-03  0:03:28 1754
   247  3.1970e-02  2.4278e-02  2.4137e-02  2.2204e+00  3.1923e-02  6.2015e-03  2.7904e-03  0:02:46 1753
   248  3.1790e-02  2.4629e-02  2.3965e-02  2.2172e+00  3.1745e-02  6.2466e-03  2.8133e-03  0:02:13 1752
   249  3.1542e-02  2.4954e-02  2.3796e-02  2.2057e+00  3.1499e-02  6.2858e-03  2.8412e-03  0:01:46 1751
   250  3.1072e-02  2.5240e-02  2.3633e-02  2.1913e+00  3.1030e-02  6.3315e-03  2.8725e-03  0:01:25 1750
   251  3.0569e-02  2.5493e-02  2.3484e-02  2.1754e+00  3.0530e-02  6.3990e-03  2.8828e-03  0:01:08 1749
   252  3.0061e-02  2.5722e-02  2.3342e-02  2.1555e+00  3.0022e-02  6.4728e-03  2.8862e-03  0:00:54 1748
   253  2.9116e-02  2.5928e-02  2.3207e-02  2.1322e+00  2.9080e-02  6.5238e-03  2.8899e-03  0:06:33 1747

  iter  continuity  x-velocity  y-velocity  z-velocity      energy           k       omega     time/iter
   254  2.7953e-02  2.6120e-02  2.3102e-02  2.0966e+00  2.7918e-02  6.6016e-03  2.9038e-03  0:05:14 1746
   255  2.6845e-02  2.6307e-02  2.3031e-02  2.0567e+00  2.6810e-02  6.6984e-03  2.9307e-03  0:04:11 1745
   256  2.5847e-02  2.6468e-02  2.2972e-02  2.0191e+00  2.5813e-02  6.7719e-03  2.9443e-03  0:03:21 1744
   257  2.4789e-02  2.6606e-02  2.2923e-02  1.9836e+00  2.4756e-02  6.8330e-03  2.9577e-03  0:02:41 1743
   258  2.3149e-02  2.6731e-02  2.2933e-02  1.9386e+00  2.3117e-02  6.8890e-03  2.9744e-03  0:02:08 1742
   259  2.1212e-02  2.6849e-02  2.3009e-02  1.8847e+00  2.1179e-02  6.9854e-03  2.9827e-03  0:01:43 1741
   260  1.9303e-02  2.6944e-02  2.3108e-02  1.8346e+00  1.9269e-02  7.0702e-03  2.9752e-03  0:01:22 1740
   261  1.7589e-02  2.7007e-02  2.3217e-02  1.7918e+00  1.7554e-02  7.1612e-03  2.9590e-03  0:01:06 1739
   262  1.6155e-02  2.7088e-02  2.3342e-02  1.7629e+00  1.6119e-02  7.2357e-03  2.9488e-03  0:00:52 1738
   263  1.4972e-02  2.7141e-02  2.3504e-02  1.7429e+00  1.4935e-02  7.2831e-03  2.9592e-03  0:06:29 1737
   264  1.3993e-02  2.7187e-02  2.3726e-02  1.7305e+00  1.3954e-02  7.3444e-03  2.9658e-03  0:05:11 1736

  iter  continuity  x-velocity  y-velocity  z-velocity      energy           k       omega     time/iter
   265  1.3156e-02  2.7231e-02  2.3987e-02  1.7217e+00  1.3116e-02  7.4125e-03  2.9835e-03  0:04:09 1735
   266  1.2423e-02  2.7258e-02  2.4302e-02  1.7156e+00  1.2382e-02  7.5086e-03  2.9848e-03  0:03:19 1734
   267  1.1763e-02  2.7257e-02  2.4666e-02  1.7005e+00  1.1721e-02  7.5779e-03  2.9676e-03  0:02:39 1733
   268  1.1144e-02  2.7238e-02  2.5064e-02  1.6895e+00  1.1101e-02  7.6715e-03  2.9732e-03  0:02:07 1732
   269  1.0553e-02  2.7187e-02  2.5505e-02  1.6747e+00  1.0508e-02  7.7565e-03  2.9669e-03  0:01:42 1731
   270  1.0017e-02  2.7124e-02  2.5972e-02  1.6554e+00  9.9691e-03  7.8522e-03  2.9739e-03  0:01:21 1730
   271  9.5334e-03  2.7034e-02  2.6450e-02  1.6352e+00  9.4839e-03  7.9370e-03  2.9902e-03  0:01:05 1729
   272  9.0859e-03  2.6924e-02  2.6959e-02  1.6131e+00  9.0340e-03  8.0181e-03  2.9892e-03  0:00:52 1728
   273  8.6798e-03  2.6794e-02  2.7525e-02  1.5913e+00  8.6253e-03  8.0840e-03  2.9787e-03  0:06:27 1727
   274  8.3033e-03  2.6655e-02  2.8128e-02  1.5626e+00  8.2459e-03  8.1201e-03  2.9694e-03  0:05:09 1726
   275  7.9806e-03  2.6501e-02  2.8741e-02  1.5333e+00  7.9202e-03  8.1445e-03  2.9912e-03  0:04:07 1725

  iter  continuity  x-velocity  y-velocity  z-velocity      energy           k       omega     time/iter
   276  7.7163e-03  2.6351e-02  2.9378e-02  1.5061e+00  7.6529e-03  8.2170e-03  3.0010e-03  0:03:18 1724
   277  7.5029e-03  2.6219e-02  3.0037e-02  1.4705e+00  7.4365e-03  8.3019e-03  3.0168e-03  0:02:38 1723
   278  7.3747e-03  2.6112e-02  3.0708e-02  1.4437e+00  7.3061e-03  8.3394e-03  3.0185e-03  0:02:06 1722
   279  7.3351e-03  2.6043e-02  3.1377e-02  1.4166e+00  7.2651e-03  8.3545e-03  3.0213e-03  0:01:41 1721
   280  7.3932e-03  2.6001e-02  3.2030e-02  1.3924e+00  7.3228e-03  8.4662e-03  3.0234e-03  0:01:21 1720
   281  7.5630e-03  2.5985e-02  3.2723e-02  1.3686e+00  7.4934e-03  8.5087e-03  3.0438e-03  0:01:05 1719
   282  7.8277e-03  2.6005e-02  3.3457e-02  1.3505e+00  7.7599e-03  8.5115e-03  3.0592e-03  0:00:52 1718
   283  8.1889e-03  2.6071e-02  3.4219e-02  1.3367e+00  8.1237e-03  8.5967e-03  3.0763e-03  0:00:41 1717
   284  8.6409e-03  2.6149e-02  3.5015e-02  1.3295e+00  8.5787e-03  8.7156e-03  3.0971e-03  0:06:16 1716
   285  9.1642e-03  2.6216e-02  3.5827e-02  1.3201e+00  9.1051e-03  8.7782e-03  3.1209e-03  0:05:01 1715
   286  9.7552e-03  2.6260e-02  3.6656e-02  1.3102e+00  9.6991e-03  8.8165e-03  3.1312e-03  0:04:01 1714

  iter  continuity  x-velocity  y-velocity  z-velocity      energy           k       omega     time/iter
   287  1.0402e-02  2.6287e-02  3.7490e-02  1.2957e+00  1.0349e-02  8.9899e-03  3.1505e-03  0:03:12 1713
   288  1.1066e-02  2.6306e-02  3.8296e-02  1.2826e+00  1.1016e-02  9.1455e-03  3.1706e-03  0:02:34 1712
   289  1.1744e-02  2.6314e-02  3.9103e-02  1.2687e+00  1.1696e-02  9.1823e-03  3.1914e-03  0:02:03 1711
   290  1.2442e-02  2.6322e-02  3.9896e-02  1.2529e+00  1.2397e-02  9.1726e-03  3.2058e-03  0:01:38 1710
   291  1.3190e-02  2.6354e-02  4.0675e-02  1.2434e+00  1.3146e-02  9.2423e-03  3.2310e-03  0:01:19 1709
   292  1.3966e-02  2.6416e-02  4.1419e-02  1.2363e+00  1.3923e-02  9.3316e-03  3.2528e-03  0:01:03 1708
   293  1.4771e-02  2.6531e-02  4.2137e-02  1.2333e+00  1.4730e-02  9.4330e-03  3.2731e-03  0:00:50 1707
   294  1.5648e-02  2.6679e-02  4.2841e-02  1.2357e+00  1.5609e-02  9.5015e-03  3.2925e-03  0:06:21 1706
   295  1.6541e-02  2.6858e-02  4.3516e-02  1.2391e+00  1.6503e-02  9.5793e-03  3.3094e-03  0:05:05 1705
   296  1.7424e-02  2.7059e-02  4.4189e-02  1.2460e+00  1.7387e-02  9.6624e-03  3.3234e-03  0:04:04 1704
   297  1.8312e-02  2.7281e-02  4.4849e-02  1.2586e+00  1.8275e-02  9.7222e-03  3.3430e-03  0:03:15 1703

  iter  continuity  x-velocity  y-velocity  z-velocity      energy           k       omega     time/iter
   298  1.9220e-02  2.7531e-02  4.5484e-02  1.2750e+00  1.9184e-02  9.7675e-03  3.3751e-03  0:02:36 1702
   299  2.0129e-02  2.7778e-02  4.6092e-02  1.2933e+00  2.0094e-02  9.8550e-03  3.3959e-03  0:02:05 1701
   300  2.1004e-02  2.8024e-02  4.6642e-02  1.3132e+00  2.0969e-02  9.9481e-03  3.4095e-03  0:01:40 1700
   301  2.1833e-02  2.8258e-02  4.7192e-02  1.3421e+00  2.1798e-02  1.0030e-02  3.4172e-03  0:01:20 1699
   302  2.2590e-02  2.8484e-02  4.7739e-02  1.3791e+00  2.2554e-02  1.0087e-02  3.4238e-03  0:01:04 1698
   303  2.3277e-02  2.8700e-02  4.8270e-02  1.4160e+00  2.3241e-02  1.0144e-02  3.4321e-03  0:00:51 1697
   304  2.3929e-02  2.8905e-02  4.8776e-02  1.4601e+00  2.3893e-02  1.0205e-02  3.4367e-03  0:06:20 1696
   305  2.4559e-02  2.9116e-02  4.9249e-02  1.5062e+00  2.4521e-02  1.0305e-02  3.4419e-03  0:05:04 1695
   306  2.5136e-02  2.9326e-02  4.9692e-02  1.5569e+00  2.5097e-02  1.0390e-02  3.4429e-03  0:04:03 1694
   307  2.5662e-02  2.9556e-02  5.0106e-02  1.6073e+00  2.5622e-02  1.0387e-02  3.4416e-03  0:03:14 1693
   308  2.6162e-02  2.9789e-02  5.0477e-02  1.6680e+00  2.6121e-02  1.0331e-02  3.4420e-03  0:02:35 1692

  iter  continuity  x-velocity  y-velocity  z-velocity      energy           k       omega     time/iter
   309  2.6647e-02  3.0025e-02  5.0796e-02  1.7414e+00  2.6605e-02  1.0344e-02  3.4387e-03  0:02:04 1691
   310  2.7125e-02  3.0302e-02  5.1071e-02  1.8146e+00  2.7081e-02  1.0359e-02  3.4311e-03  0:01:39 1690
   311  2.7551e-02  3.0629e-02  5.1306e-02  1.8855e+00  2.7505e-02  1.0406e-02  3.4227e-03  0:01:19 1689
   312  2.7893e-02  3.0985e-02  5.1510e-02  1.9716e+00  2.7846e-02  1.0430e-02  3.4179e-03  0:01:03 1688
   313  2.8196e-02  3.1391e-02  5.1699e-02  2.0422e+00  2.8147e-02  1.0394e-02  3.4109e-03  0:00:51 1687
   314  2.8460e-02  3.1859e-02  5.1830e-02  2.0943e+00  2.8410e-02  1.0327e-02  3.3928e-03  0:06:18 1686
   315  2.8692e-02  3.2347e-02  5.1908e-02  2.1463e+00  2.8640e-02  1.0305e-02  3.3580e-03  0:05:02 1685
   316  2.8909e-02  3.2830e-02  5.1945e-02  2.1837e+00  2.8855e-02  1.0277e-02  3.3430e-03  0:04:01 1684
   317  2.9082e-02  3.3258e-02  5.1919e-02  2.2147e+00  2.9026e-02  1.0239e-02  3.3110e-03  0:03:13 1683
   318  2.9249e-02  3.3568e-02  5.1867e-02  2.2664e+00  2.9192e-02  1.0201e-02  3.2730e-03  0:02:34 1682
   319  2.9414e-02  3.3796e-02  5.1781e-02  2.2782e+00  2.9355e-02  1.0128e-02  3.2498e-03  0:02:03 1681

  iter  continuity  x-velocity  y-velocity  z-velocity      energy           k       omega     time/iter
   320  2.9563e-02  3.3951e-02  5.1669e-02  2.3163e+00  2.9503e-02  1.0044e-02  3.2088e-03  0:01:39 1680
   321  2.9654e-02  3.4075e-02  5.1528e-02  2.3249e+00  2.9593e-02  9.9818e-03  3.1796e-03  0:01:19 1679
   322  2.9636e-02  3.4144e-02  5.1354e-02  2.3582e+00  2.9574e-02  9.9139e-03  3.1500e-03  0:01:03 1678
   323  2.9583e-02  3.4176e-02  5.1190e-02  2.3593e+00  2.9519e-02  9.8569e-03  3.1163e-03  0:00:50 1677
   324  2.9485e-02  3.4225e-02  5.1013e-02  2.3838e+00  2.9420e-02  9.7963e-03  3.0715e-03  0:06:16 1676
   325  2.9329e-02  3.4274e-02  5.0822e-02  2.4361e+00  2.9263e-02  9.7436e-03  3.0368e-03  0:05:00 1675
   326  2.9203e-02  3.4350e-02  5.0610e-02  2.4427e+00  2.9136e-02  9.6611e-03  3.0080e-03  0:04:00 1674
   327  2.9156e-02  3.4471e-02  5.0358e-02  2.4852e+00  2.9088e-02  9.5932e-03  2.9728e-03  0:03:12 1673
   328  2.9251e-02  3.4651e-02  5.0120e-02  2.5029e+00  2.9182e-02  9.5544e-03  2.9454e-03  0:02:33 1672
   329  2.9349e-02  3.4883e-02  4.9883e-02  2.5406e+00  2.9278e-02  9.4990e-03  2.9063e-03  0:02:03 1671
   330  2.9355e-02  3.5173e-02  4.9649e-02  2.5587e+00  2.9282e-02  9.4348e-03  2.8787e-03  0:01:38 1670

  iter  continuity  x-velocity  y-velocity  z-velocity      energy           k       omega     time/iter
   331  2.9346e-02  3.5509e-02  4.9416e-02  2.5725e+00  2.9272e-02  9.3696e-03  2.8446e-03  0:01:18 1669
   332  2.9341e-02  3.5890e-02  4.9182e-02  2.5895e+00  2.9265e-02  9.2941e-03  2.8231e-03  0:01:03 1668
   333  2.9409e-02  3.6323e-02  4.8959e-02  2.5997e+00  2.9332e-02  9.2103e-03  2.7991e-03  0:00:50 1667
   334  2.9616e-02  3.6788e-02  4.8753e-02  2.6075e+00  2.9537e-02  9.1245e-03  2.7758e-03  0:06:13 1666
   335  2.9835e-02  3.7273e-02  4.8553e-02  2.6844e+00  2.9753e-02  9.0333e-03  2.7495e-03  0:04:58 1665
   336  3.0258e-02  3.7773e-02  4.8356e-02  2.7095e+00  3.0173e-02  8.9402e-03  2.7299e-03  0:03:59 1664
   337  3.0796e-02  3.8282e-02  4.8198e-02  2.7680e+00  3.0708e-02  8.8528e-03  2.7121e-03  0:03:11 1663
   338  3.1279e-02  3.8797e-02  4.8059e-02  2.8432e+00  3.1189e-02  8.7707e-03  2.6886e-03  0:02:33 1662
   339  3.1792e-02  3.9326e-02  4.7915e-02  2.8875e+00  3.1697e-02  8.6911e-03  2.6787e-03  0:02:02 1661
   340  3.2168e-02  3.9860e-02  4.7788e-02  2.9119e+00  3.2070e-02  8.6132e-03  2.6653e-03  0:01:38 1660
   341  3.2540e-02  4.0396e-02  4.7669e-02  2.9397e+00  3.2439e-02  8.5423e-03  2.6537e-03  0:01:18 1659

  iter  continuity  x-velocity  y-velocity  z-velocity      energy           k       omega     time/iter
   342  3.2957e-02  4.0950e-02  4.7537e-02  2.9732e+00  3.2852e-02  8.4749e-03  2.6410e-03  0:01:02 1658
   343  3.3286e-02  4.1525e-02  4.7410e-02  2.9874e+00  3.3177e-02  8.3972e-03  2.6282e-03  0:00:50 1657
   344  3.3503e-02  4.2118e-02  4.7289e-02  2.9979e+00  3.3390e-02  8.3123e-03  2.6147e-03  0:06:11 1656
   345  3.3762e-02  4.2702e-02  4.7166e-02  3.0208e+00  3.3646e-02  8.2251e-03  2.6066e-03  0:04:57 1655
   346  3.4066e-02  4.3283e-02  4.7031e-02  3.0513e+00  3.3945e-02  8.1315e-03  2.5856e-03  0:03:57 1654
   347  3.4373e-02  4.3866e-02  4.6875e-02  3.0951e+00  3.4248e-02  8.0436e-03  2.5624e-03  0:03:10 1653
   348  3.4659e-02  4.4440e-02  4.6731e-02  3.1048e+00  3.4530e-02  7.9431e-03  2.5475e-03  0:02:32 1652
   349  3.4979e-02  4.4987e-02  4.6593e-02  3.1004e+00  3.4846e-02  7.8505e-03  2.5299e-03  0:02:01 1651
   350  3.5395e-02  4.5507e-02  4.6476e-02  3.0996e+00  3.5258e-02  7.7554e-03  2.5094e-03  0:01:37 1650
   351  3.5783e-02  4.5996e-02  4.6358e-02  3.0771e+00  3.5643e-02  7.6612e-03  2.4985e-03  0:01:17 1649
   352  3.6306e-02  4.6469e-02  4.6234e-02  3.0689e+00  3.6161e-02  7.5607e-03  2.4814e-03  0:01:02 1648

  iter  continuity  x-velocity  y-velocity  z-velocity      energy           k       omega     time/iter
   353  3.7047e-02  4.6937e-02  4.6133e-02  3.0670e+00  3.6897e-02  7.4584e-03  2.4622e-03  0:06:19 1647
   354  3.7879e-02  4.7391e-02  4.6016e-02  3.0704e+00  3.7725e-02  7.3546e-03  2.4409e-03  0:05:03 1646
   355  3.8374e-02  4.7842e-02  4.5890e-02  3.0518e+00  3.8216e-02  7.2412e-03  2.4196e-03  0:04:02 1645
   356  3.8765e-02  4.8296e-02  4.5788e-02  3.0173e+00  3.8605e-02  7.1444e-03  2.4003e-03  0:03:14 1644
   357  3.8856e-02  4.8754e-02  4.5716e-02  2.9846e+00  3.8693e-02  7.0483e-03  2.3842e-03  0:02:35 1643
   358  3.8875e-02  4.9201e-02  4.5688e-02  2.9608e+00  3.8711e-02  6.9626e-03  2.3689e-03  0:02:04 1642
   359  3.8941e-02  4.9616e-02  4.5672e-02  2.9522e+00  3.8776e-02  6.8737e-03  2.3557e-03  0:01:39 1641
   360  3.8831e-02  5.0003e-02  4.5635e-02  2.9793e+00  3.8665e-02  6.7807e-03  2.3372e-03  0:01:19 1640
   361  3.8454e-02  5.0372e-02  4.5546e-02  2.9524e+00  3.8288e-02  6.6982e-03  2.3201e-03  0:01:03 1639
   362  3.7936e-02  5.0742e-02  4.5495e-02  2.9531e+00  3.7771e-02  6.6161e-03  2.3095e-03  0:00:51 1638
   363  3.7425e-02  5.1117e-02  4.5433e-02  2.9763e+00  3.7261e-02  6.5328e-03  2.2936e-03  0:00:40 1637

  iter  continuity  x-velocity  y-velocity  z-velocity      energy           k       omega     time/iter
   364  3.6979e-02  5.1491e-02  4.5350e-02  2.9991e+00  3.6817e-02  6.4545e-03  2.2837e-03  0:06:00 1636
   365  3.6561e-02  5.1851e-02  4.5235e-02  3.0123e+00  3.6399e-02  6.3858e-03  2.2765e-03  0:04:47 1635
   366  3.6142e-02  5.2184e-02  4.5164e-02  3.0155e+00  3.5981e-02  6.3181e-03  2.2664e-03  0:03:50 1634
   367  3.5522e-02  5.2483e-02  4.5089e-02  3.0199e+00  3.5363e-02  6.2489e-03  2.2495e-03  0:03:04 1633
   368  3.4820e-02  5.2759e-02  4.5018e-02  2.9935e+00  3.4663e-02  6.1751e-03  2.2379e-03  0:02:27 1632
   369  3.4077e-02  5.3003e-02  4.4956e-02  2.9606e+00  3.3921e-02  6.1037e-03  2.2288e-03  0:01:57 1631
   370  3.3196e-02  5.3203e-02  4.4903e-02  3.0032e+00  3.3043e-02  6.0354e-03  2.2149e-03  0:01:34 1630
   371  3.2304e-02  5.3349e-02  4.4866e-02  2.9894e+00  3.2153e-02  5.9771e-03  2.2100e-03  0:01:15 1629
   372  3.1381e-02  5.3433e-02  4.4831e-02  2.9701e+00  3.1233e-02  5.9213e-03  2.2112e-03  0:01:00 1628
   373  3.0361e-02  5.3477e-02  4.4768e-02  2.9290e+00  3.0215e-02  5.8617e-03  2.2089e-03  0:00:48 1627
   374  2.9329e-02  5.3485e-02  4.4670e-02  2.8892e+00  2.9187e-02  5.8109e-03  2.2092e-03  0:06:04 1626

  iter  continuity  x-velocity  y-velocity  z-velocity      energy           k       omega     time/iter
   375  2.8261e-02  5.3459e-02  4.4554e-02  2.8301e+00  2.8122e-02  5.7579e-03  2.2100e-03  0:04:51 1625
   376  2.7138e-02  5.3411e-02  4.4458e-02  2.7902e+00  2.7002e-02  5.7060e-03  2.2086e-03  0:03:52 1624
   377  2.5963e-02  5.3338e-02  4.4399e-02  2.7391e+00  2.5831e-02  5.6618e-03  2.2136e-03  0:03:06 1623
   378  2.4667e-02  5.3227e-02  4.4366e-02  2.6934e+00  2.4539e-02  5.6162e-03  2.2144e-03  0:02:29 1622
   379  2.3260e-02  5.3072e-02  4.4333e-02  2.6535e+00  2.3137e-02  5.5723e-03  2.2126e-03  0:01:59 1621
   380  2.1903e-02  5.2881e-02  4.4284e-02  2.6153e+00  2.1784e-02  5.5352e-03  2.2198e-03  0:01:35 1620
   381  2.0670e-02  5.2660e-02  4.4221e-02  2.5813e+00  2.0555e-02  5.4995e-03  2.2308e-03  0:01:16 1619
   382  1.9411e-02  5.2436e-02  4.4146e-02  2.5543e+00  1.9300e-02  5.4594e-03  2.2368e-03  0:01:01 1618
   383  1.7960e-02  5.2215e-02  4.4046e-02  2.5269e+00  1.7854e-02  5.4323e-03  2.2464e-03  0:00:49 1617
   384  1.6212e-02  5.1982e-02  4.3931e-02  2.4649e+00  1.6111e-02  5.4057e-03  2.2561e-03  0:06:02 1616
   385  1.4511e-02  5.1736e-02  4.3801e-02  2.4103e+00  1.4415e-02  5.3754e-03  2.2619e-03  0:04:49 1615

  iter  continuity  x-velocity  y-velocity  z-velocity      energy           k       omega     time/iter
   386  1.2976e-02  5.1465e-02  4.3652e-02  2.3993e+00  1.2884e-02  5.3486e-03  2.2658e-03  0:03:51 1614
   387  1.1598e-02  5.1174e-02  4.3457e-02  2.4162e+00  1.1510e-02  5.3250e-03  2.2598e-03  0:03:05 1613
   388  1.0362e-02  5.0871e-02  4.3214e-02  2.4925e+00  1.0278e-02  5.3104e-03  2.2614e-03  0:02:28 1612
   389  9.3061e-03  5.0553e-02  4.2871e-02  2.5919e+00  9.2245e-03  5.3001e-03  2.2698e-03  0:01:58 1611
   390  8.5489e-03  5.0244e-02  4.2496e-02  2.6990e+00  8.4708e-03  5.2855e-03  2.2804e-03  0:01:35 1610
   391  8.0224e-03  4.9942e-02  4.2120e-02  2.8124e+00  7.9485e-03  5.2726e-03  2.2878e-03  0:01:16 1609
   392  7.7226e-03  4.9659e-02  4.1816e-02  2.9630e+00  7.6537e-03  5.2632e-03  2.2985e-03  0:01:00 1608
   393  7.6737e-03  4.9373e-02  4.1601e-02  3.1524e+00  7.6104e-03  5.2496e-03  2.3010e-03  0:00:48 1607
   394  7.7916e-03  4.9087e-02  4.1408e-02  3.3469e+00  7.7335e-03  5.2395e-03  2.3041e-03  0:06:00 1606
   395  8.0318e-03  4.8800e-02  4.1231e-02  3.5835e+00  7.9784e-03  5.2305e-03  2.3053e-03  0:04:48 1605
   396  8.3776e-03  4.8493e-02  4.1060e-02  3.8604e+00  8.3279e-03  5.2237e-03  2.3089e-03  0:03:50 1604

  iter  continuity  x-velocity  y-velocity  z-velocity      energy           k       omega     time/iter
   397  8.7525e-03  4.8195e-02  4.0886e-02  4.1692e+00  8.7059e-03  5.2207e-03  2.3078e-03  0:03:04 1603
   398  9.1261e-03  4.7907e-02  4.0703e-02  4.4745e+00  9.0818e-03  5.2216e-03  2.3084e-03  0:02:27 1602
   399  9.4903e-03  4.7639e-02  4.0526e-02  4.7483e+00  9.4478e-03  5.2246e-03  2.3134e-03  0:01:58 1601
   400  9.8309e-03  4.7381e-02  4.0343e-02  4.8252e+00  9.7898e-03  5.2304e-03  2.3161e-03  0:01:34 1600
   401  1.0159e-02  4.7111e-02  4.0136e-02  4.8548e+00  1.0119e-02  5.2372e-03  2.3218e-03  0:01:15 1599
   402  1.0472e-02  4.6833e-02  3.9896e-02  4.9943e+00  1.0433e-02  5.2472e-03  2.3327e-03  0:01:00 1598
   403  1.0747e-02  4.6526e-02  3.9628e-02  5.3811e+00  1.0709e-02  5.2633e-03  2.3341e-03  0:00:48 1597
   404  1.0993e-02  4.6209e-02  3.9343e-02  5.9998e+00  1.0955e-02  5.2779e-03  2.3377e-03  0:05:58 1596
   405  1.1212e-02  4.5908e-02  3.9045e-02  6.6253e+00  1.1175e-02  5.2928e-03  2.3355e-03  0:04:46 1595
   406  1.1394e-02  4.5615e-02  3.8668e-02  7.7546e+00  1.1357e-02  5.3020e-03  2.3293e-03  0:03:49 1594
   407  1.1551e-02  4.5331e-02  3.8305e-02  8.7660e+00  1.1515e-02  5.3118e-03  2.3342e-03  0:03:03 1593

  iter  continuity  x-velocity  y-velocity  z-velocity      energy           k       omega     time/iter
   408  1.1684e-02  4.5023e-02  3.7956e-02  8.7869e+00  1.1649e-02  5.3260e-03  2.3429e-03  0:02:26 1592
   409  1.1784e-02  4.4700e-02  3.7652e-02  8.5263e+00  1.1749e-02  5.3455e-03  2.3399e-03  0:01:57 1591
   410  1.1858e-02  4.4362e-02  3.7437e-02  8.6587e+00  1.1824e-02  5.3631e-03  2.3388e-03  0:01:33 1590
   411  1.1905e-02  4.4024e-02  3.7325e-02  9.0147e+00  1.1871e-02  5.3742e-03  2.3299e-03  0:01:15 1589
   412  1.1922e-02  4.3669e-02  3.7288e-02  9.0224e+00  1.1888e-02  5.3827e-03  2.3312e-03  0:01:00 1588
   413  1.1923e-02  4.3289e-02  3.7315e-02  8.8408e+00  1.1890e-02  5.3945e-03  2.3282e-03  0:00:48 1587
   414  1.1898e-02  4.2883e-02  3.7346e-02  8.7296e+00  1.1865e-02  5.4024e-03  2.3189e-03  0:05:55 1586
   415  1.1843e-02  4.2462e-02  3.7356e-02  8.8443e+00  1.1811e-02  5.4069e-03  2.3185e-03  0:04:44 1585
   416  1.1776e-02  4.2063e-02  3.7363e-02  8.9990e+00  1.1744e-02  5.4084e-03  2.3143e-03  0:03:47 1584
   417  1.1694e-02  4.1660e-02  3.7335e-02  9.0081e+00  1.1662e-02  5.4031e-03  2.3069e-03  0:03:02 1583
   418  1.1602e-02  4.1253e-02  3.7281e-02  8.8558e+00  1.1570e-02  5.3942e-03  2.3077e-03  0:02:25 1582

  iter  continuity  x-velocity  y-velocity  z-velocity      energy           k       omega     time/iter
   419  1.1495e-02  4.0826e-02  3.7192e-02  8.6595e+00  1.1463e-02  5.3907e-03  2.3030e-03  0:01:56 1581
   420  1.1372e-02  4.0374e-02  3.7048e-02  8.4279e+00  1.1340e-02  5.3876e-03  2.3018e-03  0:01:33 1580
   421  1.1240e-02  3.9929e-02  3.6858e-02  8.1862e+00  1.1208e-02  5.3840e-03  2.2910e-03  0:01:14 1579
   422  1.1113e-02  3.9496e-02  3.6649e-02  7.9234e+00  1.1081e-02  5.3841e-03  2.2875e-03  0:00:59 1578
   423  1.0989e-02  3.9069e-02  3.6444e-02  7.7078e+00  1.0957e-02  5.3808e-03  2.2851e-03  0:00:47 1577
   424  1.0878e-02  3.8646e-02  3.6261e-02  7.5467e+00  1.0845e-02  5.3755e-03  2.2759e-03  0:05:53 1576
   425  1.0785e-02  3.8211e-02  3.6077e-02  7.3512e+00  1.0753e-02  5.3751e-03  2.2658e-03  0:04:42 1575
   426  1.0710e-02  3.7783e-02  3.5910e-02  7.1356e+00  1.0677e-02  5.3704e-03  2.2566e-03  0:03:46 1574
   427  1.0652e-02  3.7346e-02  3.5794e-02  6.8704e+00  1.0619e-02  5.3641e-03  2.2518e-03  0:03:00 1573
   428  1.0612e-02  3.6898e-02  3.5753e-02  6.6759e+00  1.0578e-02  5.3645e-03  2.2448e-03  0:02:24 1572
   429  1.0582e-02  3.6455e-02  3.5769e-02  6.4186e+00  1.0547e-02  5.3669e-03  2.2299e-03  0:01:55 1571

  iter  continuity  x-velocity  y-velocity  z-velocity      energy           k       omega     time/iter
   430  1.0565e-02  3.6012e-02  3.5821e-02  6.0769e+00  1.0529e-02  5.3759e-03  2.2216e-03  0:01:32 1570
   431  1.0556e-02  3.5586e-02  3.5871e-02  5.7728e+00  1.0520e-02  5.3882e-03  2.2214e-03  0:01:14 1569
   432  1.0561e-02  3.5149e-02  3.5912e-02  5.4742e+00  1.0523e-02  5.3954e-03  2.2204e-03  0:00:59 1568
   433  1.0578e-02  3.4716e-02  3.5934e-02  5.1545e+00  1.0540e-02  5.4008e-03  2.2181e-03  0:00:47 1567
   434  1.0603e-02  3.4308e-02  3.5937e-02  4.8756e+00  1.0564e-02  5.4066e-03  2.2116e-03  0:05:51 1566
   435  1.0633e-02  3.3925e-02  3.5893e-02  4.5868e+00  1.0593e-02  5.4127e-03  2.2059e-03  0:04:41 1565
   436  1.0666e-02  3.3536e-02  3.5837e-02  4.3278e+00  1.0625e-02  5.4149e-03  2.2040e-03  0:03:44 1564
   437  1.0702e-02  3.3160e-02  3.5800e-02  4.1484e+00  1.0661e-02  5.4092e-03  2.2067e-03  0:02:59 1563
   438  1.0748e-02  3.2748e-02  3.5782e-02  4.0169e+00  1.0706e-02  5.3994e-03  2.2044e-03  0:02:23 1562
   439  1.0813e-02  3.2331e-02  3.5775e-02  3.8566e+00  1.0770e-02  5.3913e-03  2.2028e-03  0:01:55 1561
   440  1.0889e-02  3.1923e-02  3.5783e-02  3.7007e+00  1.0845e-02  5.3801e-03  2.1992e-03  0:01:32 1560

  iter  continuity  x-velocity  y-velocity  z-velocity      energy           k       omega     time/iter
   441  1.0979e-02  3.1527e-02  3.5817e-02  3.5874e+00  1.0934e-02  5.3660e-03  2.1885e-03  0:01:13 1559
   442  1.1080e-02  3.1158e-02  3.5883e-02  3.4944e+00  1.1035e-02  5.3553e-03  2.1791e-03  0:06:10 1558
   443  1.1185e-02  3.0801e-02  3.5969e-02  3.3958e+00  1.1139e-02  5.3452e-03  2.1716e-03  0:04:56 1557
   444  1.1298e-02  3.0439e-02  3.6040e-02  3.2985e+00  1.1251e-02  5.3321e-03  2.1708e-03  0:03:57 1556
   445  1.1418e-02  3.0057e-02  3.6083e-02  3.1843e+00  1.1370e-02  5.3123e-03  2.1673e-03  0:03:09 1555
   446  1.1537e-02  2.9647e-02  3.6098e-02  3.0631e+00  1.1489e-02  5.2995e-03  2.1629e-03  0:02:31 1554
   447  1.1654e-02  2.9235e-02  3.6132e-02  2.9443e+00  1.1605e-02  5.2883e-03  2.1592e-03  0:02:01 1553
   448  1.1768e-02  2.8835e-02  3.6164e-02  2.8385e+00  1.1718e-02  5.2745e-03  2.1570e-03  0:01:37 1552
   449  1.1883e-02  2.8435e-02  3.6205e-02  2.7585e+00  1.1833e-02  5.2555e-03  2.1547e-03  0:01:17 1551
   450  1.2000e-02  2.8049e-02  3.6257e-02  2.7039e+00  1.1948e-02  5.2404e-03  2.1505e-03  0:01:02 1550
   451  1.2110e-02  2.7672e-02  3.6311e-02  2.6466e+00  1.2058e-02  5.2300e-03  2.1471e-03  0:00:49 1549

  iter  continuity  x-velocity  y-velocity  z-velocity      energy           k       omega     time/iter
   452  1.2218e-02  2.7296e-02  3.6377e-02  2.5764e+00  1.2166e-02  5.2185e-03  2.1453e-03  0:05:49 1548
   453  1.2323e-02  2.6918e-02  3.6445e-02  2.5008e+00  1.2271e-02  5.2185e-03  2.1521e-03  0:04:39 1547
   454  1.2424e-02  2.6539e-02  3.6511e-02  2.4079e+00  1.2371e-02  5.2220e-03  2.1557e-03  0:03:43 1546
   455  1.2519e-02  2.6166e-02  3.6589e-02  2.3312e+00  1.2466e-02  5.2283e-03  2.1682e-03  0:02:58 1545
   456  1.2612e-02  2.5807e-02  3.6667e-02  2.2502e+00  1.2559e-02  5.2300e-03  2.1589e-03  0:02:23 1544
   457  1.2703e-02  2.5466e-02  3.6736e-02  2.1859e+00  1.2649e-02  5.2344e-03  2.1553e-03  0:01:54 1543
   458  1.2789e-02  2.5142e-02  3.6791e-02  2.1086e+00  1.2735e-02  5.2439e-03  2.1603e-03  0:01:31 1542
   459  1.2871e-02  2.4830e-02  3.6819e-02  2.0442e+00  1.2817e-02  5.2565e-03  2.1646e-03  0:01:13 1541
   460  1.2953e-02  2.4556e-02  3.6850e-02  1.9844e+00  1.2898e-02  5.2653e-03  2.1665e-03  0:00:58 1540
   461  1.3033e-02  2.4304e-02  3.6859e-02  1.9265e+00  1.2979e-02  5.2843e-03  2.1754e-03  0:00:47 1539
   462  1.3116e-02  2.4067e-02  3.6854e-02  1.8704e+00  1.3062e-02  5.2960e-03  2.1843e-03  0:05:45 1538

  iter  continuity  x-velocity  y-velocity  z-velocity      energy           k       omega     time/iter
   463  1.3200e-02  2.3829e-02  3.6830e-02  1.8183e+00  1.3146e-02  5.3096e-03  2.1895e-03  0:04:36 1537
   464  1.3285e-02  2.3585e-02  3.6776e-02  1.7688e+00  1.3231e-02  5.3283e-03  2.1951e-03  0:03:40 1536
   465  1.3377e-02  2.3362e-02  3.6710e-02  1.7135e+00  1.3323e-02  5.3519e-03  2.2050e-03  0:02:56 1535
   466  1.3474e-02  2.3148e-02  3.6627e-02  1.6633e+00  1.3421e-02  5.3820e-03  2.2137e-03  0:02:21 1534
   467  1.3577e-02  2.2967e-02  3.6528e-02  1.6150e+00  1.3524e-02  5.4188e-03  2.2184e-03  0:01:53 1533
   468  1.3684e-02  2.2787e-02  3.6411e-02  1.5704e+00  1.3631e-02  5.4542e-03  2.2254e-03  0:01:30 1532
   469  1.3793e-02  2.2640e-02  3.6276e-02  1.5279e+00  1.3741e-02  5.4842e-03  2.2403e-03  0:01:12 1531
   470  1.3904e-02  2.2525e-02  3.6130e-02  1.4888e+00  1.3853e-02  5.5183e-03  2.2540e-03  0:00:58 1530
   471  1.4017e-02  2.2424e-02  3.5983e-02  1.4528e+00  1.3967e-02  5.5524e-03  2.2627e-03  0:00:46 1529
   472  1.4130e-02  2.2326e-02  3.5831e-02  1.4233e+00  1.4081e-02  5.5851e-03  2.2750e-03  0:05:42 1528
   473  1.4247e-02  2.2237e-02  3.5683e-02  1.3979e+00  1.4198e-02  5.6169e-03  2.2860e-03  0:04:34 1527

  iter  continuity  x-velocity  y-velocity  z-velocity      energy           k       omega     time/iter
   474  1.4361e-02  2.2158e-02  3.5535e-02  1.3717e+00  1.4314e-02  5.6620e-03  2.2910e-03  0:03:39 1526
   475  1.4474e-02  2.2104e-02  3.5386e-02  1.3450e+00  1.4427e-02  5.7213e-03  2.2998e-03  0:02:55 1525
   476  1.4585e-02  2.2086e-02  3.5236e-02  1.3186e+00  1.4539e-02  5.7946e-03  2.3064e-03  0:02:20 1524
   477  1.4692e-02  2.2090e-02  3.5071e-02  1.3020e+00  1.4647e-02  5.8668e-03  2.3162e-03  0:01:52 1523
   478  1.4797e-02  2.2123e-02  3.4910e-02  1.2879e+00  1.4753e-02  5.9339e-03  2.3238e-03  0:01:29 1522
   479  1.4898e-02  2.2180e-02  3.4706e-02  1.2752e+00  1.4855e-02  5.9950e-03  2.3319e-03  0:01:11 1521
   480  1.4994e-02  2.2273e-02  3.4495e-02  1.2675e+00  1.4953e-02  6.0449e-03  2.3346e-03  0:00:57 1520
   481  1.5092e-02  2.2427e-02  3.4284e-02  1.2550e+00  1.5051e-02  6.0938e-03  2.3422e-03  0:00:46 1519
   482  1.5185e-02  2.2632e-02  3.4075e-02  1.2364e+00  1.5145e-02  6.1427e-03  2.3570e-03  0:05:40 1518
   483  1.5282e-02  2.2873e-02  3.3866e-02  1.2144e+00  1.5243e-02  6.1882e-03  2.3705e-03  0:04:32 1517
   484  1.5387e-02  2.3173e-02  3.3662e-02  1.1924e+00  1.5349e-02  6.2342e-03  2.3815e-03  0:03:37 1516

  iter  continuity  x-velocity  y-velocity  z-velocity      energy           k       omega     time/iter
   485  1.5495e-02  2.3514e-02  3.3465e-02  1.1603e+00  1.5458e-02  6.2815e-03  2.3904e-03  0:02:54 1515
   486  1.5608e-02  2.3904e-02  3.3275e-02  1.1228e+00  1.5572e-02  6.3260e-03  2.4045e-03  0:02:19 1514
   487  1.5732e-02  2.4362e-02  3.3078e-02  1.0830e+00  1.5696e-02  6.3685e-03  2.4191e-03  0:01:51 1513
   488  1.5862e-02  2.4850e-02  3.2866e-02  1.0429e+00  1.5827e-02  6.4168e-03  2.4273e-03  0:01:29 1512
   489  1.6003e-02  2.5376e-02  3.2670e-02  1.0115e+00  1.5969e-02  6.4735e-03  2.4364e-03  0:01:11 1511
   490  1.6157e-02  2.5954e-02  3.2492e-02  9.8794e-01  1.6125e-02  6.5302e-03  2.4531e-03  0:00:57 1510
   491  1.6323e-02  2.6581e-02  3.2333e-02  9.6902e-01  1.6291e-02  6.5873e-03  2.4723e-03  0:00:45 1509
   492  1.6501e-02  2.7251e-02  3.2185e-02  9.5956e-01  1.6470e-02  6.6424e-03  2.4877e-03  0:05:38 1508
   493  1.6692e-02  2.7957e-02  3.1997e-02  9.5469e-01  1.6662e-02  6.6956e-03  2.5086e-03  0:04:30 1507
   494  1.6897e-02  2.8687e-02  3.1769e-02  9.4521e-01  1.6867e-02  6.7531e-03  2.5235e-03  0:03:36 1506
   495  1.7113e-02  2.9416e-02  3.1504e-02  9.3507e-01  1.7084e-02  6.8161e-03  2.5451e-03  0:02:53 1505

  iter  continuity  x-velocity  y-velocity  z-velocity      energy           k       omega     time/iter
   496  1.7343e-02  3.0122e-02  3.1274e-02  9.2687e-01  1.7315e-02  6.8848e-03  2.5627e-03  0:02:18 1504
   497  1.7586e-02  3.0815e-02  3.1090e-02  9.2018e-01  1.7558e-02  6.9564e-03  2.5828e-03  0:01:50 1503
   498  1.7841e-02  3.1501e-02  3.0888e-02  9.3367e-01  1.7814e-02  7.0220e-03  2.6107e-03  0:01:28 1502
   499  1.8109e-02  3.2197e-02  3.0662e-02  9.2698e-01  1.8082e-02  7.0835e-03  2.6314e-03  0:01:11 1501
   500  1.8388e-02  3.2895e-02  3.0384e-02  9.2211e-01  1.8362e-02  7.1475e-03  2.6540e-03  0:00:56 1500
   501  1.8673e-02  3.3566e-02  3.0117e-02  9.2159e-01  1.8648e-02  7.2178e-03  2.6812e-03  0:00:45 1499
   502  1.8966e-02  3.4231e-02  2.9890e-02  9.1975e-01  1.8941e-02  7.2908e-03  2.7034e-03  0:05:36 1498
   503  1.9266e-02  3.4901e-02  2.9655e-02  9.1155e-01  1.9242e-02  7.3781e-03  2.7211e-03  0:04:28 1497
   504  1.9568e-02  3.5561e-02  2.9329e-02  8.9240e-01  1.9545e-02  7.4646e-03  2.7396e-03  0:03:35 1496
   505  1.9868e-02  3.6204e-02  2.9031e-02  8.9160e-01  1.9845e-02  7.5395e-03  2.7678e-03  0:02:52 1495
   506  2.0155e-02  3.6813e-02  2.8845e-02  8.5856e-01  2.0132e-02  7.6051e-03  2.7952e-03  0:02:17 1494

  iter  continuity  x-velocity  y-velocity  z-velocity      energy           k       omega     time/iter
   507  2.0431e-02  3.7386e-02  2.8691e-02  8.2449e-01  2.0410e-02  7.6683e-03  2.8208e-03  0:01:50 1493
   508  2.0702e-02  3.7944e-02  2.8555e-02  8.1194e-01  2.0681e-02  7.7581e-03  2.8427e-03  0:01:28 1492
   509  2.0963e-02  3.8468e-02  2.8429e-02  8.0431e-01  2.0943e-02  7.8369e-03  2.8632e-03  0:01:10 1491
   510  2.1203e-02  3.8935e-02  2.8302e-02  8.0101e-01  2.1183e-02  7.9138e-03  2.8950e-03  0:00:56 1490
   511  2.1425e-02  3.9335e-02  2.8194e-02  8.0767e-01  2.1406e-02  7.9916e-03  2.9064e-03  0:00:45 1489
   512  2.1622e-02  3.9694e-02  2.8051e-02  8.3574e-01  2.1604e-02  8.0431e-03  2.9202e-03  0:05:33 1488
   513  2.1765e-02  3.9998e-02  2.7944e-02  8.7417e-01  2.1747e-02  8.1031e-03  2.9246e-03  0:04:27 1487
   514  2.1852e-02  4.0262e-02  2.8047e-02  9.2127e-01  2.1835e-02  8.1571e-03  2.9308e-03  0:03:33 1486
   515  2.1887e-02  4.0497e-02  2.8203e-02  9.5832e-01  2.1870e-02  8.2072e-03  2.9579e-03  0:02:50 1485
   516  2.1868e-02  4.0704e-02  2.8304e-02  9.7440e-01  2.1852e-02  8.2691e-03  2.9789e-03  0:02:16 1484
   517  2.1797e-02  4.0873e-02  2.8366e-02  9.6055e-01  2.1781e-02  8.3301e-03  2.9780e-03  0:01:49 1483

  iter  continuity  x-velocity  y-velocity  z-velocity      energy           k       omega     time/iter
   518  2.1672e-02  4.0988e-02  2.8441e-02  9.5243e-01  2.1657e-02  8.3492e-03  2.9770e-03  0:01:27 1482
   519  2.1492e-02  4.1065e-02  2.8483e-02  9.5229e-01  2.1477e-02  8.3663e-03  2.9761e-03  0:01:10 1481
   520  2.1257e-02  4.1105e-02  2.8525e-02  9.5226e-01  2.1243e-02  8.3858e-03  2.9774e-03  0:00:56 1480
   521  2.0963e-02  4.1089e-02  2.8593e-02  9.6272e-01  2.0949e-02  8.4057e-03  2.9766e-03  0:00:44 1479
   522  2.0621e-02  4.1026e-02  2.8682e-02  9.7844e-01  2.0608e-02  8.4012e-03  2.9693e-03  0:05:31 1478
   523  2.0220e-02  4.0922e-02  2.8796e-02  9.9148e-01  2.0208e-02  8.3609e-03  2.9574e-03  0:04:25 1477
   524  1.9763e-02  4.0756e-02  2.8898e-02  1.0058e+00  1.9751e-02  8.3686e-03  2.9327e-03  0:03:32 1476
   525  1.9248e-02  4.0544e-02  2.8961e-02  1.0241e+00  1.9237e-02  8.3690e-03  2.9041e-03  0:02:49 1475
   526  1.8677e-02  4.0253e-02  2.9025e-02  1.0500e+00  1.8665e-02  8.3050e-03  2.8730e-03  0:02:15 1474
   527  1.8052e-02  3.9884e-02  2.9081e-02  1.0826e+00  1.8041e-02  8.2513e-03  2.8339e-03  0:01:48 1473
   528  1.7376e-02  3.9474e-02  2.9139e-02  1.1084e+00  1.7365e-02  8.2463e-03  2.8023e-03  0:01:26 1472

  iter  continuity  x-velocity  y-velocity  z-velocity      energy           k       omega     time/iter
   529  1.6649e-02  3.9028e-02  2.9272e-02  1.1312e+00  1.6638e-02  8.2194e-03  2.7659e-03  0:01:09 1471
   530  1.5866e-02  3.8554e-02  2.9441e-02  1.1531e+00  1.5856e-02  8.1465e-03  2.7384e-03  0:00:55 1470
   531  1.5017e-02  3.8059e-02  2.9695e-02  1.1657e+00  1.5007e-02  8.0494e-03  2.6946e-03  0:00:44 1469
   532  1.4111e-02  3.7565e-02  3.0013e-02  1.1695e+00  1.4101e-02  7.9673e-03  2.6500e-03  0:05:29 1468
   533  1.3150e-02  3.7048e-02  3.0373e-02  1.1707e+00  1.3140e-02  7.8622e-03  2.5964e-03  0:04:23 1467
   534  1.2146e-02  3.6518e-02  3.0742e-02  1.1682e+00  1.2137e-02  7.7375e-03  2.5436e-03  0:03:30 1466
   535  1.1107e-02  3.5982e-02  3.1147e-02  1.1533e+00  1.1098e-02  7.6416e-03  2.4851e-03  0:02:48 1465
   536  1.0052e-02  3.5445e-02  3.1557e-02  1.1505e+00  1.0043e-02  7.5456e-03  2.4382e-03  0:02:14 1464
   537  9.0591e-03  3.4918e-02  3.1960e-02  1.1565e+00  9.0511e-03  7.4481e-03  2.3971e-03  0:01:47 1463
   538  8.1003e-03  3.4390e-02  3.2342e-02  1.1594e+00  8.0931e-03  7.3396e-03  2.3462e-03  0:01:26 1462
   539  7.2210e-03  3.3890e-02  3.2665e-02  1.1567e+00  7.2151e-03  7.2269e-03  2.3124e-03  0:01:09 1461

  iter  continuity  x-velocity  y-velocity  z-velocity      energy           k       omega     time/iter
   540  6.5443e-03  3.3420e-02  3.2871e-02  1.1580e+00  6.5404e-03  7.1288e-03  2.2710e-03  0:00:55 1460
   541  6.1558e-03  3.2968e-02  3.2944e-02  1.1653e+00  6.1544e-03  7.0383e-03  2.2246e-03  0:00:44 1459
   542  6.1183e-03  3.2557e-02  3.2910e-02  1.1654e+00  6.1196e-03  6.9557e-03  2.1892e-03  0:05:27 1458
   543  6.4708e-03  3.2195e-02  3.2750e-02  1.1891e+00  6.4745e-03  6.8557e-03  2.1551e-03  0:04:21 1457
   544  7.1350e-03  3.1861e-02  3.2467e-02  1.1910e+00  7.1403e-03  6.7686e-03  2.1200e-03  0:03:29 1456
   545  8.0728e-03  3.1565e-02  3.2067e-02  1.1895e+00  8.0791e-03  6.6857e-03  2.0905e-03  0:02:47 1455
   546  9.2172e-03  3.1302e-02  3.1548e-02  1.1787e+00  9.2240e-03  6.6081e-03  2.0591e-03  0:02:13 1454
   547  1.0608e-02  3.1060e-02  3.0937e-02  1.1681e+00  1.0614e-02  6.5311e-03  2.0248e-03  0:01:47 1453
   548  1.2102e-02  3.0848e-02  3.0249e-02  1.1521e+00  1.2109e-02  6.4651e-03  1.9904e-03  0:01:25 1452
   549  1.3669e-02  3.0657e-02  2.9498e-02  1.1302e+00  1.3676e-02  6.3961e-03  1.9626e-03  0:01:08 1451
   550  1.5314e-02  3.0481e-02  2.8676e-02  1.1073e+00  1.5320e-02  6.3216e-03  1.9397e-03  0:00:55 1450

  iter  continuity  x-velocity  y-velocity  z-velocity      energy           k       omega     time/iter
   551  1.6706e-02  3.0319e-02  2.7796e-02  1.0926e+00  1.6712e-02  6.2468e-03  1.9124e-03  0:00:44 1449
   552  1.7948e-02  3.0163e-02  2.6861e-02  1.0861e+00  1.7953e-02  6.1618e-03  1.8841e-03  0:05:24 1448
   553  1.9194e-02  3.0002e-02  2.5896e-02  1.0797e+00  1.9198e-02  6.0756e-03  1.8526e-03  0:04:19 1447
   554  2.0418e-02  2.9819e-02  2.4928e-02  1.0728e+00  2.0421e-02  5.9921e-03  1.8216e-03  0:03:27 1446
   555  2.1598e-02  2.9611e-02  2.3964e-02  1.0711e+00  2.1601e-02  5.9082e-03  1.7964e-03  0:02:46 1445
   556  2.2705e-02  2.9382e-02  2.2999e-02  1.0749e+00  2.2708e-02  5.8206e-03  1.7698e-03  0:02:13 1444
   557  2.3661e-02  2.9127e-02  2.2034e-02  1.0770e+00  2.3662e-02  5.7262e-03  1.7406e-03  0:01:46 1443
   558  2.4521e-02  2.8840e-02  2.1106e-02  1.0832e+00  2.4522e-02  5.6225e-03  1.7164e-03  0:01:25 1442
   559  2.5294e-02  2.8514e-02  2.0225e-02  1.0819e+00  2.5294e-02  5.5171e-03  1.6946e-03  0:01:08 1441
   560  2.5989e-02  2.8151e-02  1.9397e-02  1.0780e+00  2.5988e-02  5.4394e-03  1.6740e-03  0:00:54 1440
   561  2.6623e-02  2.7753e-02  1.8625e-02  1.0711e+00  2.6622e-02  5.3613e-03  1.6513e-03  0:00:43 1439

  iter  continuity  x-velocity  y-velocity  z-velocity      energy           k       omega     time/iter
   562  2.7142e-02  2.7326e-02  1.7910e-02  1.0651e+00  2.7140e-02  5.2772e-03  1.6275e-03  0:05:22 1438
   563  2.7566e-02  2.6874e-02  1.7262e-02  1.0626e+00  2.7563e-02  5.1925e-03  1.6032e-03  0:04:18 1437
   564  2.7910e-02  2.6407e-02  1.6682e-02  1.0645e+00  2.7907e-02  5.0989e-03  1.5841e-03  0:03:26 1436
   565  2.8193e-02  2.5932e-02  1.6168e-02  1.0692e+00  2.8190e-02  5.0138e-03  1.5584e-03  0:02:45 1435
   566  2.8464e-02  2.5455e-02  1.5716e-02  1.0757e+00  2.8460e-02  4.9179e-03  1.5343e-03  0:02:12 1434
   567  2.8774e-02  2.4977e-02  1.5315e-02  1.0829e+00  2.8770e-02  4.8264e-03  1.5096e-03  0:01:45 1433
   568  2.9188e-02  2.4507e-02  1.4963e-02  1.0931e+00  2.9185e-02  4.7433e-03  1.4902e-03  0:01:24 1432
   569  2.9629e-02  2.4051e-02  1.4637e-02  1.1030e+00  2.9626e-02  4.6541e-03  1.4741e-03  0:01:07 1431
   570  3.0239e-02  2.3610e-02  1.4332e-02  1.1104e+00  3.0236e-02  4.5632e-03  1.4590e-03  0:00:54 1430
   571  3.0561e-02  2.3194e-02  1.4045e-02  1.1179e+00  3.0558e-02  4.4821e-03  1.4454e-03  0:00:43 1429
   572  3.1061e-02  2.2806e-02  1.3772e-02  1.1224e+00  3.1059e-02  4.4055e-03  1.4362e-03  0:05:20 1428

  iter  continuity  x-velocity  y-velocity  z-velocity      energy           k       omega     time/iter
   573  3.1238e-02  2.2451e-02  1.3515e-02  1.1254e+00  3.1237e-02  4.3256e-03  1.4287e-03  0:04:16 1427
   574  3.1253e-02  2.2123e-02  1.3272e-02  1.1250e+00  3.1252e-02  4.2562e-03  1.4191e-03  0:03:24 1426
   575  3.0820e-02  2.1823e-02  1.3046e-02  1.1184e+00  3.0819e-02  4.1869e-03  1.4103e-03  0:02:43 1425
   576  3.0152e-02  2.1546e-02  1.2829e-02  1.1086e+00  3.0151e-02  4.1157e-03  1.4003e-03  0:02:11 1424
   577  2.9379e-02  2.1291e-02  1.2614e-02  1.0954e+00  2.9378e-02  4.0514e-03  1.3891e-03  0:01:44 1423
   578  2.8542e-02  2.1054e-02  1.2392e-02  1.0814e+00  2.8541e-02  3.9963e-03  1.3851e-03  0:01:24 1422
   579  2.7661e-02  2.0835e-02  1.2165e-02  1.0681e+00  2.7659e-02  3.9389e-03  1.3803e-03  0:01:07 1421
   580  2.6756e-02  2.0629e-02  1.1935e-02  1.0481e+00  2.6754e-02  3.8921e-03  1.3845e-03  0:00:53 1420
   581  2.5830e-02  2.0435e-02  1.1705e-02  1.0253e+00  2.5828e-02  3.8413e-03  1.3859e-03  0:00:43 1419
   582  2.4780e-02  2.0248e-02  1.1472e-02  9.9830e-01  2.4777e-02  3.7906e-03  1.3837e-03  0:05:18 1418
   583  2.3603e-02  2.0067e-02  1.1241e-02  9.6806e-01  2.3599e-02  3.7420e-03  1.3870e-03  0:04:14 1417

  iter  continuity  x-velocity  y-velocity  z-velocity      energy           k       omega     time/iter
   584  2.2421e-02  1.9891e-02  1.1019e-02  9.3529e-01  2.2416e-02  3.6951e-03  1.3823e-03  0:03:23 1416
   585  2.1302e-02  1.9718e-02  1.0808e-02  9.0052e-01  2.1297e-02  3.6443e-03  1.3825e-03  0:02:42 1415
   586  2.0266e-02  1.9549e-02  1.0605e-02  8.6273e-01  2.0260e-02  3.5997e-03  1.3862e-03  0:02:10 1414
   587  1.9239e-02  1.9382e-02  1.0408e-02  8.2528e-01  1.9232e-02  3.5604e-03  1.3841e-03  0:01:44 1413
   588  1.8243e-02  1.9214e-02  1.0225e-02  7.8733e-01  1.8236e-02  3.5271e-03  1.3894e-03  0:01:23 1412
   589  1.7311e-02  1.9047e-02  1.0056e-02  7.4908e-01  1.7303e-02  3.4992e-03  1.3955e-03  0:01:06 1411
   590  1.6447e-02  1.8879e-02  9.8981e-03  7.1255e-01  1.6438e-02  3.4730e-03  1.3941e-03  0:00:53 1410
   591  1.5659e-02  1.8711e-02  9.7515e-03  6.7803e-01  1.5649e-02  3.4532e-03  1.3987e-03  0:00:42 1409
   592  1.4954e-02  1.8544e-02  9.6132e-03  6.4623e-01  1.4943e-02  3.4389e-03  1.4040e-03  0:05:15 1408
   593  1.4312e-02  1.8379e-02  9.4725e-03  6.1932e-01  1.4300e-02  3.4280e-03  1.4036e-03  0:04:12 1407
   594  1.3727e-02  1.8215e-02  9.3223e-03  5.9600e-01  1.3714e-02  3.4233e-03  1.4016e-03  0:03:22 1406

  iter  continuity  x-velocity  y-velocity  z-velocity      energy           k       omega     time/iter
   595  1.3241e-02  1.8050e-02  9.1703e-03  5.7179e-01  1.3228e-02  3.4199e-03  1.3998e-03  0:02:41 1405
   596  1.2821e-02  1.7887e-02  9.0197e-03  5.4878e-01  1.2807e-02  3.4195e-03  1.3970e-03  0:02:09 1404
   597  1.2412e-02  1.7726e-02  8.8771e-03  5.2546e-01  1.2397e-02  3.4172e-03  1.4020e-03  0:01:43 1403
   598  1.1980e-02  1.7565e-02  8.7445e-03  5.0481e-01  1.1964e-02  3.4181e-03  1.3990e-03  0:01:22 1402
   599  1.1502e-02  1.7408e-02  8.6232e-03  4.8322e-01  1.1486e-02  3.4225e-03  1.4027e-03  0:01:06 1401
   600  1.0939e-02  1.7254e-02  8.5134e-03  4.6202e-01  1.0922e-02  3.4254e-03  1.4002e-03  0:00:53 1400
   601  1.0332e-02  1.7102e-02  8.4164e-03  4.4377e-01  1.0314e-02  3.4281e-03  1.3997e-03  0:00:42 1399
   602  9.6755e-03  1.6951e-02  8.3275e-03  4.2772e-01  9.6555e-03  3.4394e-03  1.3918e-03  0:05:13 1398
   603  8.9958e-03  1.6803e-02  8.2434e-03  4.1522e-01  8.9740e-03  3.4578e-03  1.3902e-03  0:04:10 1397
   604  8.3251e-03  1.6657e-02  8.1895e-03  4.0343e-01  8.3013e-03  3.4732e-03  1.3898e-03  0:03:20 1396
   605  7.7237e-03  1.6514e-02  8.1955e-03  3.9737e-01  7.6978e-03  3.4829e-03  1.3852e-03  0:02:40 1395

  iter  continuity  x-velocity  y-velocity  z-velocity      energy           k       omega     time/iter
   606  7.2125e-03  1.6375e-02  8.2186e-03  3.9657e-01  7.1845e-03  3.4926e-03  1.3845e-03  0:02:08 1394
   607  6.7865e-03  1.6238e-02  8.2118e-03  3.9757e-01  6.7566e-03  3.5013e-03  1.3798e-03  0:01:42 1393
   608  6.4369e-03  1.6104e-02  8.2006e-03  3.9977e-01  6.4053e-03  3.5068e-03  1.3781e-03  0:01:22 1392
   609  6.1529e-03  1.5974e-02  8.1957e-03  3.9995e-01  6.1199e-03  3.5155e-03  1.3786e-03  0:01:05 1391
   610  5.9165e-03  1.5848e-02  8.2005e-03  3.9997e-01  5.8823e-03  3.5264e-03  1.3735e-03  0:00:52 1390
   611  5.7215e-03  1.5727e-02  8.2157e-03  4.0193e-01  5.6864e-03  3.5330e-03  1.3778e-03  0:00:42 1389
   612  5.5532e-03  1.5611e-02  8.2433e-03  4.0518e-01  5.5173e-03  3.5394e-03  1.3744e-03  0:05:11 1388
   613  5.4016e-03  1.5501e-02  8.2849e-03  4.0838e-01  5.3652e-03  3.5454e-03  1.3706e-03  0:04:09 1387
   614  5.2712e-03  1.5398e-02  8.3218e-03  4.1546e-01  5.2345e-03  3.5490e-03  1.3680e-03  0:03:19 1386
   615  5.1476e-03  1.5302e-02  8.3304e-03  4.2911e-01  5.1108e-03  3.5553e-03  1.3559e-03  0:02:39 1385
   616  5.0318e-03  1.5211e-02  8.3493e-03  4.3604e-01  4.9950e-03  3.5677e-03  1.3492e-03  0:02:07 1384

  iter  continuity  x-velocity  y-velocity  z-velocity      energy           k       omega     time/iter
   617  4.9232e-03  1.5125e-02  8.3730e-03  4.4247e-01  4.8867e-03  3.5750e-03  1.3445e-03  0:01:42 1383
   618  4.8212e-03  1.5044e-02  8.3940e-03  4.4677e-01  4.7851e-03  3.5815e-03  1.3400e-03  0:01:21 1382
   619  4.7209e-03  1.4967e-02  8.4038e-03  4.5062e-01  4.6854e-03  3.5905e-03  1.3362e-03  0:01:05 1381
   620  4.6232e-03  1.4893e-02  8.3978e-03  4.5371e-01  4.5883e-03  3.5972e-03  1.3341e-03  0:00:52 1380
   621  4.5210e-03  1.4825e-02  8.4123e-03  4.6445e-01  4.4868e-03  3.6029e-03  1.3239e-03  0:00:41 1379
   622  4.4117e-03  1.4758e-02  8.4208e-03  4.7411e-01  4.3783e-03  3.6081e-03  1.3183e-03  0:05:09 1378
   623  4.2963e-03  1.4695e-02  8.3954e-03  4.8144e-01  4.2638e-03  3.6151e-03  1.3113e-03  0:04:07 1377
   624  4.1744e-03  1.4635e-02  8.3589e-03  4.8689e-01  4.1429e-03  3.6167e-03  1.2933e-03  0:03:17 1376
   625  4.0452e-03  1.4576e-02  8.3198e-03  4.9099e-01  4.0147e-03  3.6156e-03  1.2754e-03  0:02:38 1375
   626  3.9094e-03  1.4518e-02  8.2769e-03  4.9658e-01  3.8799e-03  3.6180e-03  1.2618e-03  0:02:06 1374
[...]
  1838  9.5286e-05  1.7523e-03  4.2585e-04  2.0487e-02  9.4481e-05  3.7897e-04  8.3421e-05  0:00:29  162
  1839  9.3748e-05  1.7498e-03  4.2516e-04  2.0503e-02  9.3025e-05  3.7962e-04  8.2549e-05  0:00:23  161
  1840  9.3619e-05  1.7473e-03  4.2452e-04  2.0530e-02  9.2985e-05  3.8061e-04  8.1686e-05  0:00:18  160
  1841  9.4787e-05  1.7448e-03  4.2393e-04  2.0556e-02  9.4242e-05  3.8167e-04  8.0912e-05  0:00:15  159
  1842  9.7069e-05  1.7422e-03  4.2337e-04  2.0586e-02  9.6610e-05  3.8256e-04  8.0162e-05  0:00:12  158
  1843  1.0025e-04  1.7394e-03  4.2283e-04  2.0631e-02  9.9872e-05  3.8341e-04  7.9404e-05  0:00:09  157
  1844  1.0411e-04  1.7364e-03  4.2231e-04  2.0678e-02  1.0380e-04  3.8427e-04  7.8746e-05  0:00:07  156
  1845  1.0843e-04  1.7332e-03  4.2180e-04  2.0731e-02  1.0818e-04  3.8526e-04  7.8208e-05  0:00:06  155
  1846  1.1301e-04  1.7297e-03  4.2130e-04  2.0809e-02  1.1282e-04  3.8614e-04  7.7745e-05  0:00:05  154
  1847  1.1770e-04  1.7260e-03  4.2082e-04  2.0893e-02  1.1755e-04  3.8675e-04  7.7270e-05  0:00:34  153
  1848  1.2236e-04  1.7218e-03  4.2036e-04  2.0980e-02  1.2224e-04  3.8737e-04  7.6759e-05  0:00:27  152

  iter  continuity  x-velocity  y-velocity  z-velocity      energy           k       omega     time/iter
  1849  1.2686e-04  1.7173e-03  4.1992e-04  2.1082e-02  1.2677e-04  3.8824e-04  7.6277e-05  0:00:22  151
  1850  1.3109e-04  1.7125e-03  4.1952e-04  2.1190e-02  1.3103e-04  3.8907e-04  7.5771e-05  0:00:17  150
  1851  1.3498e-04  1.7072e-03  4.1915e-04  2.1316e-02  1.3493e-04  3.8968e-04  7.5368e-05  0:00:14  149
  1852  1.3845e-04  1.7015e-03  4.1883e-04  2.1448e-02  1.3842e-04  3.9015e-04  7.4946e-05  0:00:11  148
  1853  1.4149e-04  1.6955e-03  4.1856e-04  2.1583e-02  1.4147e-04  3.9111e-04  7.4660e-05  0:00:09  147
  1854  1.4407e-04  1.6890e-03  4.1835e-04  2.1714e-02  1.4405e-04  3.9221e-04  7.4445e-05  0:00:07  146
  1855  1.4615e-04  1.6822e-03  4.1821e-04  2.1840e-02  1.4614e-04  3.9309e-04  7.4149e-05  0:00:05  145
  1856  1.4775e-04  1.6750e-03  4.1813e-04  2.1958e-02  1.4774e-04  3.9369e-04  7.3866e-05  0:00:04  144
  1857  1.4885e-04  1.6675e-03  4.1812e-04  2.2062e-02  1.4884e-04  3.9406e-04  7.3660e-05  0:00:32  143
  1858  1.4945e-04  1.6596e-03  4.1819e-04  2.2150e-02  1.4944e-04  3.9435e-04  7.3424e-05  0:00:25  142
  1859  1.4960e-04  1.6514e-03  4.1831e-04  2.2219e-02  1.4958e-04  3.9441e-04  7.3122e-05  0:00:20  141

  iter  continuity  x-velocity  y-velocity  z-velocity      energy           k       omega     time/iter
  1860  1.4933e-04  1.6430e-03  4.1850e-04  2.2268e-02  1.4930e-04  3.9424e-04  7.2794e-05  0:00:16  140
  1861  1.4866e-04  1.6343e-03  4.1873e-04  2.2297e-02  1.4862e-04  3.9400e-04  7.2561e-05  0:00:13  139
  1862  1.4766e-04  1.6254e-03  4.1900e-04  2.2292e-02  1.4761e-04  3.9370e-04  7.2180e-05  0:00:10  138
  1863  1.4651e-04  1.6164e-03  4.1931e-04  2.2251e-02  1.4644e-04  3.9340e-04  7.1710e-05  0:00:08  137
  1864  1.4531e-04  1.6071e-03  4.1962e-04  2.2169e-02  1.4522e-04  3.9287e-04  7.1116e-05  0:00:06  136
  1865  1.4404e-04  1.5977e-03  4.1994e-04  2.2044e-02  1.4393e-04  3.9200e-04  7.0601e-05  0:00:32  135
  1866  1.4293e-04  1.5881e-03  4.2025e-04  2.1876e-02  1.4280e-04  3.9089e-04  7.0102e-05  0:00:25  134
  1867  1.4220e-04  1.5784e-03  4.2054e-04  2.1669e-02  1.4204e-04  3.8999e-04  6.9563e-05  0:00:20  133
  1868  1.4189e-04  1.5685e-03  4.2080e-04  2.1428e-02  1.4171e-04  3.8902e-04  6.8985e-05  0:00:16  132
  1869  1.4207e-04  1.5586e-03  4.2101e-04  2.1157e-02  1.4186e-04  3.8786e-04  6.8466e-05  0:00:13  131
  1870  1.4281e-04  1.5485e-03  4.2117e-04  2.0856e-02  1.4257e-04  3.8653e-04  6.7966e-05  0:00:10  130

  iter  continuity  x-velocity  y-velocity  z-velocity      energy           k       omega     time/iter
  1871  1.4423e-04  1.5383e-03  4.2123e-04  2.0510e-02  1.4396e-04  3.8504e-04  6.7456e-05  0:00:08  129
  1872  1.4637e-04  1.5280e-03  4.2121e-04  2.0147e-02  1.4607e-04  3.8339e-04  6.6879e-05  0:00:06  128
  1873  1.4928e-04  1.5176e-03  4.2110e-04  1.9778e-02  1.4896e-04  3.8162e-04  6.6329e-05  0:00:05  127
  1874  1.5297e-04  1.5071e-03  4.2089e-04  1.9416e-02  1.5262e-04  3.7968e-04  6.5738e-05  0:00:04  126
  1875  1.5740e-04  1.4965e-03  4.2058e-04  1.9072e-02  1.5702e-04  3.7762e-04  6.5275e-05  0:00:28  125
  1876  1.6250e-04  1.4857e-03  4.2018e-04  1.8749e-02  1.6210e-04  3.7555e-04  6.4967e-05  0:00:22  124
  1877  1.6822e-04  1.4749e-03  4.1968e-04  1.8447e-02  1.6779e-04  3.7338e-04  6.4756e-05  0:00:18  123
  1878  1.7443e-04  1.4639e-03  4.1910e-04  1.8169e-02  1.7399e-04  3.7133e-04  6.4638e-05  0:00:14  122
  1879  1.8103e-04  1.4528e-03  4.1846e-04  1.7919e-02  1.8057e-04  3.6923e-04  6.4570e-05  0:00:11  121
  1880  1.8789e-04  1.4416e-03  4.1778e-04  1.7711e-02  1.8741e-04  3.6707e-04  6.4632e-05  0:00:09  120
  1881  1.9489e-04  1.4303e-03  4.1707e-04  1.7550e-02  1.9439e-04  3.6506e-04  6.4675e-05  0:00:07  119

  iter  continuity  x-velocity  y-velocity  z-velocity      energy           k       omega     time/iter
  1882  2.0191e-04  1.4189e-03  4.1635e-04  1.7437e-02  2.0140e-04  3.6326e-04  6.4738e-05  0:00:06  118
  1883  2.0886e-04  1.4073e-03  4.1566e-04  1.7383e-02  2.0833e-04  3.6156e-04  6.4859e-05  0:00:04  117
  1884  2.1562e-04  1.3957e-03  4.1501e-04  1.7391e-02  2.1508e-04  3.5984e-04  6.5044e-05  0:00:04  116
  1885  2.2211e-04  1.3840e-03  4.1444e-04  1.7460e-02  2.2155e-04  3.5821e-04  6.5231e-05  0:00:26  115
  1886  2.2822e-04  1.3722e-03  4.1397e-04  1.7586e-02  2.2764e-04  3.5672e-04  6.5416e-05  0:00:20  114
  1887  2.3388e-04  1.3603e-03  4.1365e-04  1.7767e-02  2.3329e-04  3.5516e-04  6.5615e-05  0:00:16  113
  1888  2.3904e-04  1.3484e-03  4.1348e-04  1.7998e-02  2.3843e-04  3.5362e-04  6.5816e-05  0:00:13  112
  1889  2.4365e-04  1.3365e-03  4.1349e-04  1.8272e-02  2.4302e-04  3.5216e-04  6.5911e-05  0:00:10  111
  1890  2.4765e-04  1.3245e-03  4.1372e-04  1.8584e-02  2.4700e-04  3.5073e-04  6.6023e-05  0:00:08  110
  1891  2.5101e-04  1.3125e-03  4.1417e-04  1.8922e-02  2.5035e-04  3.4942e-04  6.6131e-05  0:00:06  109
  1892  2.5374e-04  1.3006e-03  4.1487e-04  1.9290e-02  2.5305e-04  3.4824e-04  6.6327e-05  0:00:05  108

  iter  continuity  x-velocity  y-velocity  z-velocity      energy           k       omega     time/iter
  1893  2.5581e-04  1.2886e-03  4.1580e-04  1.9682e-02  2.5511e-04  3.4721e-04  6.6608e-05  0:00:04  107
  1894  2.5726e-04  1.2767e-03  4.1698e-04  2.0094e-02  2.5653e-04  3.4634e-04  6.6813e-05  0:00:03  106
  1895  2.5811e-04  1.2648e-03  4.1838e-04  2.0520e-02  2.5736e-04  3.4580e-04  6.7002e-05  0:00:24  105
  1896  2.5839e-04  1.2530e-03  4.2001e-04  2.0956e-02  2.5762e-04  3.4537e-04  6.7263e-05  0:00:19  104
  1897  2.5816e-04  1.2412e-03  4.2185e-04  2.1397e-02  2.5736e-04  3.4508e-04  6.7446e-05  0:00:15  103
  1898  2.5747e-04  1.2295e-03  4.2387e-04  2.1840e-02  2.5665e-04  3.4479e-04  6.7603e-05  0:00:12  102
  1899  2.5639e-04  1.2179e-03  4.2605e-04  2.2280e-02  2.5555e-04  3.4460e-04  6.7977e-05  0:00:09  101
  1900  2.5501e-04  1.2063e-03  4.2836e-04  2.2716e-02  2.5415e-04  3.4453e-04  6.8353e-05  0:00:07  100
  1901  2.5340e-04  1.1949e-03  4.3078e-04  2.3142e-02  2.5251e-04  3.4452e-04  6.8667e-05  0:00:06   99
  1902  2.5165e-04  1.1836e-03  4.3329e-04  2.3564e-02  2.5073e-04  3.4444e-04  6.8994e-05  0:00:05   98
  1903  2.4983e-04  1.1723e-03  4.3585e-04  2.3965e-02  2.4889e-04  3.4427e-04  6.9277e-05  0:00:04   97

  iter  continuity  x-velocity  y-velocity  z-velocity      energy           k       omega     time/iter
  1904  2.4801e-04  1.1611e-03  4.3843e-04  2.4346e-02  2.4705e-04  3.4422e-04  6.9543e-05  0:00:03   96
  1905  2.4626e-04  1.1500e-03  4.4101e-04  2.4708e-02  2.4528e-04  3.4429e-04  6.9814e-05  0:00:21   95
  1906  2.4467e-04  1.1390e-03  4.4354e-04  2.5055e-02  2.4366e-04  3.4433e-04  7.0123e-05  0:00:17   94
  1907  2.4328e-04  1.1280e-03  4.4603e-04  2.5393e-02  2.4225e-04  3.4432e-04  7.0481e-05  0:00:13   93
  1908  2.4216e-04  1.1171e-03  4.4847e-04  2.5727e-02  2.4111e-04  3.4422e-04  7.0893e-05  0:00:11   92
  1909  2.4133e-04  1.1063e-03  4.5084e-04  2.6052e-02  2.4027e-04  3.4409e-04  7.1347e-05  0:00:08   91
  1910  2.4083e-04  1.0955e-03  4.5315e-04  2.6377e-02  2.3975e-04  3.4402e-04  7.1844e-05  0:00:07   90
  1911  2.4065e-04  1.0847e-03  4.5540e-04  2.6705e-02  2.3955e-04  3.4387e-04  7.2235e-05  0:00:05   89
  1912  2.4080e-04  1.0740e-03  4.5759e-04  2.7052e-02  2.3969e-04  3.4359e-04  7.2605e-05  0:00:04   88
  1913  2.4127e-04  1.0633e-03  4.5973e-04  2.7426e-02  2.4014e-04  3.4321e-04  7.2964e-05  0:00:03   87
  1914  2.4203e-04  1.0527e-03  4.6182e-04  2.7831e-02  2.4088e-04  3.4272e-04  7.3353e-05  0:00:03   86

  iter  continuity  x-velocity  y-velocity  z-velocity      energy           k       omega     time/iter
  1915  2.4303e-04  1.0420e-03  4.6388e-04  2.8269e-02  2.4187e-04  3.4235e-04  7.3642e-05  0:00:19   85
  1916  2.4425e-04  1.0315e-03  4.6590e-04  2.8768e-02  2.4308e-04  3.4214e-04  7.4007e-05  0:00:15   84
  1917  2.4564e-04  1.0209e-03  4.6789e-04  2.9298e-02  2.4446e-04  3.4225e-04  7.4294e-05  0:00:12   83
  1918  2.4715e-04  1.0105e-03  4.6987e-04  2.9874e-02  2.4595e-04  3.4236e-04  7.4695e-05  0:00:09   82
  1919  2.4873e-04  9.9998e-04  4.7183e-04  3.0453e-02  2.4753e-04  3.4229e-04  7.5051e-05  0:00:07   81
  1920  2.5037e-04  9.8954e-04  4.7378e-04  3.1048e-02  2.4916e-04  3.4210e-04  7.5342e-05  0:00:06   80
  1921  2.5203e-04  9.7912e-04  4.7574e-04  3.1636e-02  2.5081e-04  3.4179e-04  7.5612e-05  0:00:05   79
  1922  2.5367e-04  9.6874e-04  4.7765e-04  3.2175e-02  2.5244e-04  3.4168e-04  7.5757e-05  0:00:04   78
  1923  2.5525e-04  9.5840e-04  4.7959e-04  3.2696e-02  2.5401e-04  3.4171e-04  7.6061e-05  0:00:03   77
  1924  2.5677e-04  9.4809e-04  4.8155e-04  3.3206e-02  2.5551e-04  3.4192e-04  7.6254e-05  0:00:17   76
  1925  2.5817e-04  9.3781e-04  4.8354e-04  3.3687e-02  2.5691e-04  3.4176e-04  7.6459e-05  0:00:14   75

  iter  continuity  x-velocity  y-velocity  z-velocity      energy           k       omega     time/iter
  1926  2.5945e-04  9.2758e-04  4.8556e-04  3.4118e-02  2.5817e-04  3.4115e-04  7.6570e-05  0:00:11   74
  1927  2.6058e-04  9.1740e-04  4.8762e-04  3.4547e-02  2.5929e-04  3.4042e-04  7.6531e-05  0:00:09   73
  1928  2.6154e-04  9.0731e-04  4.8953e-04  3.4948e-02  2.6023e-04  3.3983e-04  7.6664e-05  0:00:07   72
  1929  2.6233e-04  8.9722e-04  4.9145e-04  3.5371e-02  2.6102e-04  3.3899e-04  7.6822e-05  0:00:05   71
  1930  2.6302e-04  8.8717e-04  4.9340e-04  3.5768e-02  2.6169e-04  3.3800e-04  7.6931e-05  0:00:04   70
  1931  2.6361e-04  8.7719e-04  4.9536e-04  3.6135e-02  2.6227e-04  3.3695e-04  7.6963e-05  0:00:03   69
  1932  2.6410e-04  8.6730e-04  4.9734e-04  3.6503e-02  2.6274e-04  3.3599e-04  7.7037e-05  0:00:03   68
  1933  2.6448e-04  8.5749e-04  4.9935e-04  3.6804e-02  2.6311e-04  3.3529e-04  7.7361e-05  0:00:02   67
  1934  2.6478e-04  8.4781e-04  5.0137e-04  3.7090e-02  2.6339e-04  3.3463e-04  7.7751e-05  0:00:15   66
  1935  2.6499e-04  8.3827e-04  5.0338e-04  3.7316e-02  2.6359e-04  3.3400e-04  7.8080e-05  0:00:12   65
  1936  2.6512e-04  8.2888e-04  5.0538e-04  3.7503e-02  2.6370e-04  3.3383e-04  7.8259e-05  0:00:09   64

  iter  continuity  x-velocity  y-velocity  z-velocity      energy           k       omega     time/iter
  1937  2.7477e-04  8.2152e-04  5.0781e-04  3.7650e-02  2.7338e-04  3.3621e-04  8.5803e-05  0:00:07   63
  1938  2.6947e-04  8.1144e-04  5.0941e-04  3.8915e-02  2.6804e-04  3.3529e-04  8.6299e-05  0:00:06   62
  1939  2.6950e-04  8.0297e-04  5.1187e-04  4.0654e-02  2.6808e-04  3.3377e-04  8.5733e-05  0:00:04   61
  1940  2.6707e-04  7.9353e-04  5.1308e-04  4.0242e-02  2.6561e-04  3.3138e-04  8.3829e-05  0:00:04   60
  1941  2.6600e-04  7.8478e-04  5.1467e-04  3.9808e-02  2.6452e-04  3.2933e-04  8.3392e-05  0:00:03   59
  1942  2.6574e-04  7.7638e-04  5.1633e-04  3.9361e-02  2.6425e-04  3.2781e-04  8.3050e-05  0:00:02   58
  1943  2.6587e-04  7.6819e-04  5.1796e-04  3.8810e-02  2.6436e-04  3.2649e-04  8.2592e-05  0:00:02   57
  1944  2.6622e-04  7.6017e-04  5.1956e-04  3.8172e-02  2.6470e-04  3.2528e-04  8.2451e-05  0:00:13   56
  1945  2.6677e-04  7.5225e-04  5.2110e-04  3.7488e-02  2.6525e-04  3.2420e-04  8.2380e-05  0:00:10   55
  1946  2.6757e-04  7.4446e-04  5.2255e-04  3.6779e-02  2.6604e-04  3.2298e-04  8.2466e-05  0:00:08   54
  1947  2.6862e-04  7.3669e-04  5.2391e-04  3.6061e-02  2.6707e-04  3.2205e-04  8.2773e-05  0:00:06   53

  iter  continuity  x-velocity  y-velocity  z-velocity      energy           k       omega     time/iter
  1948  2.7013e-04  7.2896e-04  5.2516e-04  3.5385e-02  2.6857e-04  3.2120e-04  8.3248e-05  0:00:05   52
  1949  2.7215e-04  7.2121e-04  5.2629e-04  3.4792e-02  2.7058e-04  3.2030e-04  8.3704e-05  0:00:04   51
  1950  2.8427e-04  7.1553e-04  5.2777e-04  3.4268e-02  2.8274e-04  3.2221e-04  9.1506e-05  0:00:03   50
  1951  2.8214e-04  7.0636e-04  5.2833e-04  3.5531e-02  2.8056e-04  3.2123e-04  9.1835e-05  0:00:02   49
  1952  2.8540e-04  6.9860e-04  5.2969e-04  3.7202e-02  2.8382e-04  3.2011e-04  9.1381e-05  0:00:02   48
  1953  2.8695e-04  6.8942e-04  5.2988e-04  3.6247e-02  2.8532e-04  3.1897e-04  8.9854e-05  0:00:01   47
  1954  2.8996e-04  6.8070e-04  5.3046e-04  3.5365e-02  2.8830e-04  3.1857e-04  8.9748e-05  0:00:10   46
  1955  2.9374e-04  6.7216e-04  5.3115e-04  3.4595e-02  2.9204e-04  3.1808e-04  8.9449e-05  0:00:08   45
  1956  2.9782e-04  6.6381e-04  5.3191e-04  3.3793e-02  2.9608e-04  3.1770e-04  8.9095e-05  0:00:06   44
  1957  3.0188e-04  6.5576e-04  5.3273e-04  3.3042e-02  3.0009e-04  3.1750e-04  8.8554e-05  0:00:05   43
  1958  3.0578e-04  6.4812e-04  5.3364e-04  3.2333e-02  3.0394e-04  3.1756e-04  8.7873e-05  0:00:04   42

  iter  continuity  x-velocity  y-velocity  z-velocity      energy           k       omega     time/iter
  1959  3.0944e-04  6.4099e-04  5.3468e-04  3.1625e-02  3.0754e-04  3.1754e-04  8.7466e-05  0:00:03   41
  1960  3.2111e-04  6.3685e-04  5.3641e-04  3.0931e-02  3.1918e-04  3.2003e-04  9.3977e-05  0:00:02   40
  1961  3.1965e-04  6.2960e-04  5.3754e-04  3.1902e-02  3.1764e-04  3.1955e-04  9.3089e-05  0:00:02   39
  1962  3.2207e-04  6.2458e-04  5.3987e-04  3.3460e-02  3.2001e-04  3.1906e-04  9.1989e-05  0:00:01   38
  1963  3.2259e-04  6.1872e-04  5.4149e-04  3.2208e-02  3.2047e-04  3.1875e-04  8.9749e-05  0:00:01   37
  1964  3.2393e-04  6.1381e-04  5.4383e-04  3.1194e-02  3.2176e-04  3.1905e-04  8.9566e-05  0:00:08   36
  1965  3.2553e-04  6.0935e-04  5.4660e-04  3.0429e-02  3.2334e-04  3.1912e-04  8.9579e-05  0:00:06   35
  1966  3.2716e-04  6.0514e-04  5.4968e-04  2.9667e-02  3.2496e-04  3.1938e-04  8.9660e-05  0:00:05   34
  1967  3.2872e-04  6.0100e-04  5.5303e-04  2.8980e-02  3.2652e-04  3.1984e-04  8.9321e-05  0:00:04   33
  1968  3.3023e-04  5.9685e-04  5.5663e-04  2.8342e-02  3.2805e-04  3.2039e-04  8.9105e-05  0:00:03   32
  1969  3.3940e-04  5.9520e-04  5.6091e-04  2.7674e-02  3.3730e-04  3.2340e-04  9.5760e-05  0:00:02   31

  iter  continuity  x-velocity  y-velocity  z-velocity      energy           k       omega     time/iter
  1970  3.3683e-04  5.8964e-04  5.6453e-04  2.8438e-02  3.3474e-04  3.2353e-04  9.5565e-05  0:00:02   30
  1971  3.3647e-04  5.8476e-04  5.6856e-04  3.0075e-02  3.3442e-04  3.2386e-04  9.5944e-05  0:00:01   29
  1972  3.4303e-04  5.8367e-04  5.7338e-04  3.2081e-02  3.4108e-04  3.2502e-04  9.7392e-05  0:00:01   28
  1973  3.4174e-04  5.7729e-04  5.7634e-04  3.1084e-02  3.3982e-04  3.2495e-04  9.5816e-05  0:00:01   27
  1974  3.4238e-04  5.7279e-04  5.7955e-04  3.0230e-02  3.4050e-04  3.2462e-04  9.6109e-05  0:00:06   26
  1975  3.4472e-04  5.6880e-04  5.8230e-04  2.9860e-02  3.4289e-04  3.2373e-04  9.6091e-05  0:00:04   25
  1976  3.4750e-04  5.6513e-04  5.8432e-04  2.9348e-02  3.4570e-04  3.2288e-04  9.6396e-05  0:00:03   24
  1977  3.5047e-04  5.6167e-04  5.8548e-04  2.8682e-02  3.4870e-04  3.2235e-04  9.6287e-05  0:00:03   23
  1978  3.5354e-04  5.5838e-04  5.8574e-04  2.7788e-02  3.5178e-04  3.2167e-04  9.6650e-05  0:00:02   22
  1979  3.6377e-04  5.5794e-04  5.8554e-04  2.6737e-02  3.6206e-04  3.2297e-04  1.0329e-04  0:00:02   21
  1980  3.6285e-04  5.5350e-04  5.8361e-04  2.7405e-02  3.6110e-04  3.2153e-04  1.0332e-04  0:00:01   20

  iter  continuity  x-velocity  y-velocity  z-velocity      energy           k       omega     time/iter
  1981  3.6366e-04  5.4995e-04  5.8122e-04  2.9109e-02  3.6189e-04  3.2116e-04  1.0374e-04  0:00:01   19
  1982  3.7025e-04  5.5048e-04  5.7896e-04  3.1390e-02  3.6850e-04  3.2088e-04  1.0524e-04  0:00:01   18
  1983  3.6904e-04  5.4558e-04  5.7456e-04  3.0268e-02  3.6725e-04  3.1980e-04  1.0359e-04  0:00:04   17
  1984  3.6890e-04  5.4272e-04  5.7039e-04  2.9226e-02  3.6708e-04  3.1889e-04  1.0362e-04  0:00:03   16
  1985  3.6946e-04  5.4049e-04  5.6606e-04  2.8719e-02  3.6762e-04  3.1771e-04  1.0303e-04  0:00:02   15
  1986  3.6955e-04  5.3873e-04  5.6158e-04  2.8161e-02  3.6768e-04  3.1759e-04  1.0336e-04  0:00:02   14
  1987  3.6888e-04  5.3733e-04  5.5704e-04  2.7616e-02  3.6700e-04  3.1678e-04  1.0321e-04  0:00:01   13
  1988  3.6739e-04  5.3628e-04  5.5254e-04  2.6923e-02  3.6549e-04  3.1579e-04  1.0324e-04  0:00:01   12
  1989  3.7205e-04  5.3841e-04  5.4868e-04  2.6093e-02  3.7017e-04  3.1712e-04  1.0950e-04  0:00:01   11
  1990  3.6520e-04  5.3678e-04  5.4416e-04  2.7016e-02  3.6328e-04  3.1584e-04  1.0891e-04  0:00:00   10
  1991  3.5934e-04  5.3641e-04  5.4029e-04  2.8835e-02  3.5740e-04  3.1553e-04  1.0841e-04  0:00:00    9

  iter  continuity  x-velocity  y-velocity  z-velocity      energy           k       omega     time/iter
  1992  3.5887e-04  5.4056e-04  5.3765e-04  3.1124e-02  3.5695e-04  3.1533e-04  1.0936e-04  0:00:02    8
  1993  3.5015e-04  5.3965e-04  5.3367e-04  2.9937e-02  3.4819e-04  3.1397e-04  1.0713e-04  0:00:01    7
  1994  3.4233e-04  5.4126e-04  5.3072e-04  2.8787e-02  3.4034e-04  3.1359e-04  1.0661e-04  0:00:01    6
  1995  3.3536e-04  5.4397e-04  5.2827e-04  2.8148e-02  3.3335e-04  3.1344e-04  1.0527e-04  0:00:01    5
  1996  3.2824e-04  5.4761e-04  5.2621e-04  2.7434e-02  3.2621e-04  3.1329e-04  1.0414e-04  0:00:00    4
  1997  3.2093e-04  5.5204e-04  5.2455e-04  2.6761e-02  3.1889e-04  3.1333e-04  1.0249e-04  0:00:00    3
  1998  3.2126e-04  5.5981e-04  5.2379e-04  2.5907e-02  3.1927e-04  3.1545e-04  1.0640e-04  0:00:00    2
  1999  3.0992e-04  5.6422e-04  5.2244e-04  2.5760e-02  3.0788e-04  3.1528e-04  1.0432e-04  0:00:00    1
  2000  3.0088e-04  5.7008e-04  5.2183e-04  2.6840e-02  2.9882e-04  3.1505e-04  1.0336e-04  0:00:00    0

> 
adjoint/                parallel/               server/
define/                 parametric-study/       solve/
display/                plot/                   surface/
exit                    preferences/            turbo-workflow/
file/                   print-license-usage     views/
mesh/                   report/

> /file/write-case-data project1
Fast-loading "C:\PROGRA~1\ANSYSI~1\v231\fluent\fluent23.1.0\\addons\afd\lib\hdfio.bin"
Done.

Writing to Engs-30669:"C:\Users\kebl7595\Desktop\CFD\Runs\Flap\Re 3e5\Different Flap\AR 1;5\project1.cas.h5" in NODE0 mode and compression level 1 ...
       18972 cells,     1 zone  ...
       63816 faces,     7 zones ...
       26064 nodes,     1 zone  ...
  Done.
Done.

Writing to Engs-30669:"C:\Users\kebl7595\Desktop\CFD\Runs\Flap\Re 3e5\Different Flap\AR 1;5\project1.dat.h5" in NODE0 mode and compression level 1 ...
  Writing results.
Done.

> /file/export/ascii "./surface.dat" wing () no pressure mach-number quit no

Writing "./surface.dat"...

Writing information to ascii file ...
Done.


> /report/forces/wall-forces y -0.342020 -0.939693 0 y "Lift"

> /report/forces/wall-forces y 0.939693 -0.342020 0 y "Drag"

> /exit

Posting ANSYS Product Improvement Program performance data 
Done.
Auto-Transcript Stop Time:  12:44:20, 22 May 2024 GMT Daylight Time 
Total Transcript Time: 3 Minute 36 Second.
