Auto-Transcript Start Time:  11:11:44, 22 May 2024 GMT Daylight Time 
Current Directory: "C:\Users\kebl7595\Desktop\CFD\Runs\Flap\Shallower Aspect Ratio\Even Larger Size"

              Welcome to ANSYS Fluent 2023 R1

              Copyright 1987-2023 ANSYS, Inc. All Rights Reserved.
              Unauthorized use, distribution or duplication is prohibited.
              This product is subject to U.S. laws governing export and re-export.
              For full Legal Notice, see documentation.

Build Time: Nov 28 2022 09:52:02 EST  Build Id: 10208  
 
Connected License Server List:	1055@ansyslic.eng.ox.ac.uk

*********************************************
Info: Your license enables 4-way parallel execution.
For faster simulations, please start the application with the appropriate parallel options.
*********************************************


     --------------------------------------------------------------
     This is an academic version of ANSYS FLUENT. Usage of this product
     license is limited to the terms and conditions specified in your ANSYS
     license form, additional terms section.
     --------------------------------------------------------------
Host spawning Node 0 on machine "Engs-30669" (win64).

------------------------------------------------------------------------------------
ID    Hostname    Core  O.S.         PID    Vendor                                 
------------------------------------------------------------------------------------
n0    Engs-30669  1/32  Windows-x64  47612  13th Gen Intel(R) Core(TM) i9-13900    
host  Engs-30669        Windows-x64  44200  13th Gen Intel(R) Core(TM) i9-13900    

MPI Option Selected: intel
------------------------------------------------------------------------------------

Cleanup script file is C:\\Users\\kebl7595\\Desktop\\CFD\\Runs\\Flap\\Shallower Aspect Ratio\\Even Larger Size\\cleanup-fluent-Engs-30669-44200.bat

Posting ANSYS Product Improvement Program startup data
Done.

Reading journal file C:/Users/kebl7595/Desktop/CFD/Runs/Flap/Shallower Aspect Ratio/Even Larger Size/project1.jou...

> /file/set-batch-options no no no 

> 
define/                 parametric-study/       solve/
display/                plot/                   surface/
exit                    preferences/            switch-to-meshing-mode
file/                   print-license-usage     turbo-workflow/
mesh/                   report/                 views/
parallel/               server/

> /file/import/cgns/mesh  "./project1.cgns"
Engs-30669 has other FLUENT parallel processes running.                       Process affinity not being set.

Importing "./project1.cgns"

Opening library "C:\\PROGRA~1\\ANSYSI~1\\v231\\fluent\\fluent23.1.0\\vki\\win64\\devtools4.4.6.dll"... done.

Read    33000 nodes
   24072 hexahedral cells, zone  1
   17404 quadrilateral wall faces, zone  2.
   63040 quadrilateral interior faces, zone  3.
     474 quadrilateral interface faces, zone  4.

Building...
     mesh
     materials,
     interface,
     domains,
     zones,
	interface-default_subface
	default_interior-1
	default_subface
	default
     parallel,
The automatic selection for flux type has changed to Rhie-Chow: momentum based.

Done.


> 
adjoint/                parallel/               server/
define/                 parametric-study/       solve/
display/                plot/                   surface/
exit                    preferences/            turbo-workflow/
file/                   print-license-usage     views/
mesh/                   report/

> /define/models/solver/density-based-implicit yes

> 
adjoint/                parallel/               server/
define/                 parametric-study/       solve/
display/                plot/                   surface/
exit                    preferences/            turbo-workflow/
file/                   print-license-usage     views/
mesh/                   report/

> /define/models/energy? yes yes invalid command [yes]
yes

> /define/models/viscous/kw-standard? yes

> 
adjoint/                parallel/               server/
define/                 parametric-study/       solve/
display/                plot/                   surface/
exit                    preferences/            turbo-workflow/
file/                   print-license-usage     views/
mesh/                   report/

> /define/materials/change-create air air air is a fluid
yes 
Density
ideal-gas no data required.

no no no no no no

> 
adjoint/                parallel/               server/
define/                 parametric-study/       solve/
display/                plot/                   surface/
exit                    preferences/            turbo-workflow/
file/                   print-license-usage     views/
mesh/                   report/

> /mesh/modify-zones/sep-face-zone-angle 2 90 yes

 8024 faces in contiguous region 0
 441 faces in contiguous region 1
 618 faces in contiguous region 2
 8024 faces in contiguous region 3
 297 faces in contiguous region 4
 Separates zone 2 into 5 zone(s).
Updating new zone information...
   created new zone default_subface:009 from default_subface
   created new zone default_subface:008 from default_subface
   created new zone default_subface:007 from default_subface
   created new zone default_subface:006 from default_subface
done.

> 
adjoint/                parallel/               server/
define/                 parametric-study/       solve/
display/                plot/                   surface/
exit                    preferences/            turbo-workflow/
file/                   print-license-usage     views/
mesh/                   report/

> /define/boundary-conditions/zone-name  6 wing

> /define/boundary-conditions/zone-name  2 sym1

> /define/boundary-conditions/zone-name  8 sym2

> 
adjoint/                parallel/               server/
define/                 parametric-study/       solve/
display/                plot/                   surface/
exit                    preferences/            turbo-workflow/
file/                   print-license-usage     views/
mesh/                   report/

> /define/boundary-conditions/zone-name  7 far1

> /define/boundary-conditions/zone-name 9 far2

> 
adjoint/                parallel/               server/
define/                 parametric-study/       solve/
display/                plot/                   surface/
exit                    preferences/            turbo-workflow/
file/                   print-license-usage     views/
mesh/                   report/

> /define/boundary-conditions/zone-type  7 pressure-far-field

> /define/boundary-conditions/zone-type 9 pressure-far-field

> /define/boundary-conditions/zone-type  2 symmetry

> /define/boundary-conditions/zone-type  8 symmetry

> 
adjoint/                parallel/               server/
define/                 parametric-study/       solve/
display/                plot/                   surface/
exit                    preferences/            turbo-workflow/
file/                   print-license-usage     views/
mesh/                   report/

> /define/boundary-conditions/pressure-far-field (far2 far1)
far1 no 0 no 0.1 no 300 yes no 1 no -0. no 0. no yes 5 0.02

> /define/boundary-conditions/pressure-far-field (far2 far1)
far2 no 0 no 0.1 no 300 yes no 1 no -0. no 0. no yes 5 0.02

> 
adjoint/                parallel/               server/
define/                 parametric-study/       solve/
display/                plot/                   surface/
exit                    preferences/            turbo-workflow/
file/                   print-license-usage     views/
mesh/                   report/

> /solve/initialize/compute-defaults/pressure-far-field (far2 far1)
far1

> /solve/initialize/initialize-flow

> 
adjoint/                parallel/               server/
define/                 parametric-study/       solve/
display/                plot/                   surface/
exit                    preferences/            turbo-workflow/
file/                   print-license-usage     views/
mesh/                   report/

> /solve/monitors/residual/convergence-criteria 1.e-9 1.e-9 1.e-9 1.e-9 1.e-9 1.e-9 1.e-9

> /solve/iterate 2000

  iter  continuity  x-velocity  y-velocity  z-velocity      energy           k       omega     time/iter
     1  1.0000e+00  1.0000e+00  1.0000e+00  1.0000e+00  1.0000e+00  5.4134e-02  4.7974e-02  0:00:00 1999
     2  5.5036e-01  5.6814e-01  4.5617e-01  1.0000e+00  5.5023e-01  4.8369e-02  3.8928e-02  0:00:00 1998
     3  2.9991e-01  3.2326e-01  2.7929e-01  1.0000e+00  2.9972e-01  4.3580e-02  3.4980e-02  0:00:00 1997
     4  1.8770e-01  1.7531e-01  2.1435e-01  9.8063e-01  1.8750e-01  3.9562e-02  3.1970e-02  0:33:16 1996
     5  1.5003e-01  1.1015e-01  1.7479e-01  1.0000e+00  1.4980e-01  3.6232e-02  2.9553e-02  0:26:36 1995
     6  1.3720e-01  8.0628e-02  1.5180e-01  1.1740e+00  1.3697e-01  3.3346e-02  2.7470e-02  0:21:16 1994
     7  1.2516e-01  6.4229e-02  1.3931e-01  1.2941e+00  1.2494e-01  3.0835e-02  2.5630e-02  0:17:00 1993
     8  1.1701e-01  5.4544e-02  1.3221e-01  1.3803e+00  1.1679e-01  2.8662e-02  2.4008e-02  0:13:36 1992
     9  1.1140e-01  4.7227e-02  1.2741e-01  1.4889e+00  1.1118e-01  2.6802e-02  2.2594e-02  0:10:52 1991
    10  1.0996e-01  4.1899e-02  1.2461e-01  1.6334e+00  1.0973e-01  2.5178e-02  2.1358e-02  0:08:42 1990
    11  1.0929e-01  3.8904e-02  1.2168e-01  1.6351e+00  1.0905e-01  2.3761e-02  2.0259e-02  0:06:57 1989

  iter  continuity  x-velocity  y-velocity  z-velocity      energy           k       omega     time/iter
    12  1.0725e-01  3.6551e-02  1.1951e-01  1.6610e+00  1.0701e-01  2.2510e-02  1.9274e-02  0:12:11 1988
    13  1.0385e-01  3.4402e-02  1.1888e-01  1.6817e+00  1.0362e-01  2.1404e-02  1.8407e-02  0:09:45 1987
    14  9.8902e-02  3.3419e-02  1.1880e-01  1.7277e+00  9.8689e-02  2.0424e-02  1.7641e-02  0:07:47 1986
    15  8.9951e-02  3.2272e-02  1.1664e-01  1.5635e+00  8.9745e-02  1.9548e-02  1.6957e-02  0:06:14 1985
    16  8.1115e-02  3.2053e-02  1.1508e-01  1.4264e+00  8.0925e-02  1.8756e-02  1.6328e-02  0:04:59 1984
    17  7.2727e-02  3.1525e-02  1.1467e-01  1.3423e+00  7.2550e-02  1.8032e-02  1.5741e-02  0:03:59 1983
    18  6.5324e-02  3.0398e-02  1.1390e-01  1.3057e+00  6.5160e-02  1.7376e-02  1.5184e-02  0:03:11 1982
    19  5.8633e-02  2.8067e-02  1.1212e-01  1.3046e+00  5.8480e-02  1.6779e-02  1.4689e-02  0:02:33 1981
    20  5.3707e-02  2.6253e-02  1.1106e-01  1.2439e+00  5.3564e-02  1.6233e-02  1.4227e-02  0:08:38 1980
    21  5.0141e-02  2.5232e-02  1.0937e-01  1.1582e+00  5.0008e-02  1.5729e-02  1.3791e-02  0:06:54 1979
    22  4.8124e-02  2.4417e-02  1.0694e-01  1.0933e+00  4.7999e-02  1.5259e-02  1.3362e-02  0:05:31 1978

  iter  continuity  x-velocity  y-velocity  z-velocity      energy           k       omega     time/iter
    23  4.7369e-02  2.3268e-02  1.0349e-01  1.0297e+00  4.7248e-02  1.4828e-02  1.2958e-02  0:04:25 1977
    24  4.7787e-02  2.2294e-02  1.0059e-01  9.8233e-01  4.7669e-02  1.4464e-02  1.2627e-02  0:03:32 1976
    25  4.8370e-02  2.1756e-02  9.7361e-02  9.3592e-01  4.8252e-02  1.4134e-02  1.2330e-02  0:02:49 1975
    26  4.9150e-02  2.1336e-02  9.3779e-02  8.7961e-01  4.9028e-02  1.3813e-02  1.1985e-02  0:08:50 1974
    27  4.9835e-02  2.0702e-02  8.9877e-02  8.1516e-01  4.9708e-02  1.3519e-02  1.1666e-02  0:07:04 1973
    28  5.0316e-02  2.0100e-02  8.5877e-02  7.4633e-01  5.0182e-02  1.3241e-02  1.1343e-02  0:05:39 1972
    29  5.0458e-02  1.9377e-02  8.2373e-02  6.7721e-01  5.0317e-02  1.2965e-02  1.1076e-02  0:04:31 1971
    30  5.0425e-02  1.8960e-02  7.9246e-02  6.0824e-01  5.0276e-02  1.2700e-02  1.0807e-02  0:03:37 1970
    31  5.0037e-02  1.8529e-02  7.6545e-02  5.4652e-01  4.9882e-02  1.2458e-02  1.0536e-02  0:02:53 1969
    32  4.9250e-02  1.8039e-02  7.3940e-02  4.9585e-01  4.9090e-02  1.2227e-02  1.0267e-02  0:02:19 1968
    33  4.8190e-02  1.7646e-02  7.1791e-02  4.5680e-01  4.8027e-02  1.2003e-02  1.0007e-02  0:01:51 1967

  iter  continuity  x-velocity  y-velocity  z-velocity      energy           k       omega     time/iter
    34  4.6705e-02  1.7273e-02  6.9921e-02  4.3120e-01  4.6541e-02  1.1798e-02  9.7847e-03  0:08:02 1966
    35  4.5025e-02  1.7026e-02  6.8411e-02  4.1242e-01  4.4862e-02  1.1594e-02  9.5987e-03  0:06:25 1965
    36  4.3194e-02  1.6821e-02  6.7342e-02  3.9499e-01  4.3034e-02  1.1418e-02  9.4045e-03  0:05:08 1964
    37  4.1127e-02  1.6598e-02  6.6646e-02  3.8274e-01  4.0971e-02  1.1236e-02  9.2151e-03  0:04:06 1963
    38  3.8904e-02  1.6374e-02  6.5994e-02  3.7630e-01  3.8754e-02  1.1062e-02  9.0341e-03  0:03:17 1962
    39  3.6422e-02  1.6149e-02  6.5100e-02  3.7630e-01  3.6278e-02  1.0914e-02  8.8635e-03  0:02:37 1961
    40  3.4196e-02  1.5880e-02  6.3769e-02  3.7265e-01  3.4058e-02  1.0757e-02  8.7394e-03  0:02:06 1960
    41  3.2297e-02  1.5513e-02  6.2455e-02  3.6749e-01  3.2164e-02  1.0606e-02  8.6366e-03  0:01:41 1959
    42  3.0782e-02  1.5113e-02  6.1316e-02  3.6691e-01  3.0654e-02  1.0503e-02  8.5239e-03  0:01:21 1958
    43  2.9833e-02  1.4692e-02  6.0686e-02  3.6626e-01  2.9708e-02  1.0416e-02  8.4093e-03  0:07:36 1957
    44  2.9135e-02  1.4259e-02  6.0175e-02  3.7331e-01  2.9015e-02  1.0329e-02  8.2826e-03  0:06:04 1956

  iter  continuity  x-velocity  y-velocity  z-velocity      energy           k       omega     time/iter
    45  2.8650e-02  1.3799e-02  5.9818e-02  3.7949e-01  2.8534e-02  1.0231e-02  8.2050e-03  0:04:51 1955
    46  2.8006e-02  1.3399e-02  5.9603e-02  3.8592e-01  2.7895e-02  1.0194e-02  8.1180e-03  0:03:53 1954
    47  2.7186e-02  1.3016e-02  5.9481e-02  3.8535e-01  2.7080e-02  1.0175e-02  8.0152e-03  0:03:06 1953
    48  2.6516e-02  1.2650e-02  5.9371e-02  3.9411e-01  2.6416e-02  1.0138e-02  7.9082e-03  0:02:29 1952
    49  2.6205e-02  1.2187e-02  5.9220e-02  4.0507e-01  2.6111e-02  1.0096e-02  7.8522e-03  0:01:59 1951
    50  2.6367e-02  1.1785e-02  5.9281e-02  4.1548e-01  2.6277e-02  1.0184e-02  7.8142e-03  0:01:35 1950
    51  2.7064e-02  1.1440e-02  5.9584e-02  4.1700e-01  2.6978e-02  1.0337e-02  7.7693e-03  0:07:46 1949
    52  2.8299e-02  1.1176e-02  5.9902e-02  4.1344e-01  2.8214e-02  1.0367e-02  7.6471e-03  0:06:13 1948
    53  2.9822e-02  1.0808e-02  6.0252e-02  4.1897e-01  2.9739e-02  1.0397e-02  7.5805e-03  0:04:58 1947
    54  3.1465e-02  1.0579e-02  6.0653e-02  4.1865e-01  3.1382e-02  1.0448e-02  7.5624e-03  0:03:58 1946
    55  3.3119e-02  1.0484e-02  6.1080e-02  4.2406e-01  3.3035e-02  1.0737e-02  7.5630e-03  0:03:10 1945

  iter  continuity  x-velocity  y-velocity  z-velocity      energy           k       omega     time/iter
    56  3.4762e-02  1.0427e-02  6.1490e-02  4.2434e-01  3.4678e-02  1.0840e-02  7.4930e-03  0:02:32 1944
    57  3.6258e-02  1.0318e-02  6.1819e-02  4.1728e-01  3.6174e-02  1.0870e-02  7.4515e-03  0:02:02 1943
    58  3.7662e-02  1.0292e-02  6.2081e-02  4.0358e-01  3.7578e-02  1.0857e-02  7.3792e-03  0:01:37 1942
    59  3.8915e-02  1.0342e-02  6.2301e-02  3.9786e-01  3.8830e-02  1.1101e-02  7.3829e-03  0:07:46 1941
    60  4.0033e-02  1.0466e-02  6.2517e-02  3.9248e-01  3.9948e-02  1.1323e-02  7.3252e-03  0:06:13 1940
    61  4.1079e-02  1.0622e-02  6.2781e-02  3.8267e-01  4.0994e-02  1.1259e-02  7.2373e-03  0:04:58 1939
    62  4.1925e-02  1.0863e-02  6.3256e-02  3.7594e-01  4.1840e-02  1.1137e-02  7.1764e-03  0:03:58 1938
    63  4.2629e-02  1.1175e-02  6.3704e-02  3.7096e-01  4.2544e-02  1.1154e-02  7.1694e-03  0:03:11 1937
    64  4.3307e-02  1.1535e-02  6.4283e-02  3.6744e-01  4.3223e-02  1.1302e-02  7.1510e-03  0:02:32 1936
    65  4.3826e-02  1.1959e-02  6.5012e-02  3.6306e-01  4.3743e-02  1.1301e-02  7.0971e-03  0:02:02 1935
    66  4.4116e-02  1.2406e-02  6.5803e-02  3.5820e-01  4.4034e-02  1.1200e-02  7.0031e-03  0:01:37 1934

  iter  continuity  x-velocity  y-velocity  z-velocity      energy           k       omega     time/iter
    67  4.4353e-02  1.2874e-02  6.6725e-02  3.5479e-01  4.4271e-02  1.1111e-02  6.9502e-03  0:01:18 1933
    68  4.4529e-02  1.3337e-02  6.7581e-02  3.5089e-01  4.4448e-02  1.1015e-02  6.8914e-03  0:07:29 1932
    69  4.4642e-02  1.3857e-02  6.8482e-02  3.4499e-01  4.4561e-02  1.0975e-02  6.8567e-03  0:05:59 1931
    70  4.4551e-02  1.4360e-02  6.9457e-02  3.3613e-01  4.4472e-02  1.0927e-02  6.7681e-03  0:04:47 1930
    71  4.4366e-02  1.4833e-02  7.0444e-02  3.2615e-01  4.4287e-02  1.0894e-02  6.7110e-03  0:03:49 1929
    72  4.4058e-02  1.5335e-02  7.1363e-02  3.1522e-01  4.3981e-02  1.0665e-02  6.6051e-03  0:03:03 1928
    73  4.3543e-02  1.5802e-02  7.2234e-02  3.0433e-01  4.3466e-02  1.0607e-02  6.5450e-03  0:02:27 1927
    74  4.2877e-02  1.6168e-02  7.2984e-02  2.9300e-01  4.2801e-02  1.0438e-02  6.4623e-03  0:01:57 1926
    75  4.2085e-02  1.6498e-02  7.3734e-02  2.8143e-01  4.2011e-02  1.0385e-02  6.3878e-03  0:01:34 1925
    76  4.1156e-02  1.6792e-02  7.4510e-02  2.7015e-01  4.1083e-02  1.0304e-02  6.2681e-03  0:07:40 1924
    77  4.0089e-02  1.7044e-02  7.5287e-02  2.5989e-01  4.0017e-02  1.0190e-02  6.1903e-03  0:06:08 1923

  iter  continuity  x-velocity  y-velocity  z-velocity      energy           k       omega     time/iter
    78  3.8966e-02  1.7259e-02  7.6090e-02  2.5068e-01  3.8895e-02  1.0131e-02  6.0758e-03  0:04:54 1922
    79  3.7811e-02  1.7417e-02  7.6868e-02  2.4150e-01  3.7741e-02  1.0028e-02  5.9315e-03  0:03:55 1921
    80  3.6594e-02  1.7528e-02  7.7544e-02  2.3220e-01  3.6525e-02  9.9025e-03  5.8129e-03  0:03:08 1920
    81  3.5334e-02  1.7581e-02  7.8210e-02  2.2402e-01  3.5267e-02  9.8058e-03  5.6774e-03  0:02:30 1919
    82  3.4087e-02  1.7573e-02  7.8878e-02  2.1791e-01  3.4023e-02  9.7330e-03  5.5536e-03  0:02:00 1918
    83  3.2864e-02  1.7564e-02  7.9542e-02  2.1424e-01  3.2801e-02  9.6686e-03  5.4483e-03  0:01:36 1917
    84  3.1694e-02  1.7518e-02  8.0203e-02  2.1395e-01  3.1634e-02  9.5599e-03  5.3363e-03  0:07:40 1916
    85  3.0581e-02  1.7452e-02  8.0913e-02  2.1683e-01  3.0523e-02  9.4793e-03  5.2480e-03  0:06:08 1915
    86  2.9534e-02  1.7390e-02  8.1588e-02  2.2280e-01  2.9479e-02  9.4366e-03  5.1626e-03  0:04:54 1914
    87  2.8446e-02  1.7311e-02  8.2159e-02  2.3077e-01  2.8393e-02  9.3837e-03  5.0884e-03  0:03:55 1913
    88  2.7298e-02  1.7252e-02  8.2680e-02  2.4004e-01  2.7247e-02  9.3119e-03  5.0292e-03  0:03:08 1912

  iter  continuity  x-velocity  y-velocity  z-velocity      energy           k       omega     time/iter
    89  2.6034e-02  1.7170e-02  8.3106e-02  2.5059e-01  2.5985e-02  9.2854e-03  4.9538e-03  0:02:30 1911
    90  2.4770e-02  1.7083e-02  8.3458e-02  2.6219e-01  2.4722e-02  9.2423e-03  4.8859e-03  0:02:00 1910
    91  2.3543e-02  1.6967e-02  8.3666e-02  2.7455e-01  2.3497e-02  9.1829e-03  4.8474e-03  0:01:36 1909
    92  2.2467e-02  1.6868e-02  8.3715e-02  2.8702e-01  2.2420e-02  9.1182e-03  4.8006e-03  0:07:38 1908
    93  2.1622e-02  1.6784e-02  8.3599e-02  2.9924e-01  2.1576e-02  9.1024e-03  4.7688e-03  0:06:07 1907
    94  2.0998e-02  1.6738e-02  8.3283e-02  3.1095e-01  2.0951e-02  9.0318e-03  4.7657e-03  0:04:53 1906
    95  2.0530e-02  1.6678e-02  8.2742e-02  3.2197e-01  2.0482e-02  8.9459e-03  4.7795e-03  0:03:54 1905
    96  2.0200e-02  1.6571e-02  8.2054e-02  3.3211e-01  2.0152e-02  8.9246e-03  4.7717e-03  0:03:07 1904
    97  1.9970e-02  1.6456e-02  8.1305e-02  3.4113e-01  1.9920e-02  8.8716e-03  4.7413e-03  0:02:30 1903
    98  1.9822e-02  1.6308e-02  8.0523e-02  3.4876e-01  1.9771e-02  8.8056e-03  4.7440e-03  0:02:00 1902
    99  1.9755e-02  1.6156e-02  7.9745e-02  3.5488e-01  1.9703e-02  8.7939e-03  4.7299e-03  0:01:36 1901

  iter  continuity  x-velocity  y-velocity  z-velocity      energy           k       omega     time/iter
   100  1.9754e-02  1.6022e-02  7.8979e-02  3.5901e-01  1.9700e-02  8.7590e-03  4.7022e-03  0:01:17 1900
   101  1.9780e-02  1.5914e-02  7.8221e-02  3.6192e-01  1.9725e-02  8.7328e-03  4.6845e-03  0:07:21 1899
   102  1.9824e-02  1.5784e-02  7.7403e-02  3.6275e-01  1.9768e-02  8.7222e-03  4.6861e-03  0:05:53 1898
   103  1.9934e-02  1.5654e-02  7.6640e-02  3.6197e-01  1.9878e-02  8.7540e-03  4.6982e-03  0:04:42 1897
   104  2.0069e-02  1.5469e-02  7.5822e-02  3.5919e-01  2.0013e-02  8.7460e-03  4.6981e-03  0:03:45 1896
   105  2.0299e-02  1.5227e-02  7.5033e-02  3.5457e-01  2.0242e-02  8.7462e-03  4.6915e-03  0:03:00 1895
   106  2.0643e-02  1.4973e-02  7.4259e-02  3.4822e-01  2.0587e-02  8.7304e-03  4.6777e-03  0:02:24 1894
   107  2.1083e-02  1.4755e-02  7.3363e-02  3.4023e-01  2.1027e-02  8.6931e-03  4.6761e-03  0:01:55 1893
   108  2.1628e-02  1.4514e-02  7.2429e-02  3.3098e-01  2.1572e-02  8.6878e-03  4.6829e-03  0:01:32 1892
   109  2.2259e-02  1.4260e-02  7.1468e-02  3.2048e-01  2.2204e-02  8.6851e-03  4.6942e-03  0:07:32 1891
   110  2.3001e-02  1.3996e-02  7.0609e-02  3.0943e-01  2.2946e-02  8.6831e-03  4.6950e-03  0:06:01 1890

  iter  continuity  x-velocity  y-velocity  z-velocity      energy           k       omega     time/iter
   111  2.3900e-02  1.3738e-02  6.9926e-02  2.9771e-01  2.3846e-02  8.7181e-03  4.6972e-03  0:04:49 1889
   112  2.4955e-02  1.3464e-02  6.9383e-02  2.8566e-01  2.4901e-02  8.7468e-03  4.6815e-03  0:03:51 1888
   113  2.6221e-02  1.3197e-02  6.8916e-02  2.7365e-01  2.6167e-02  8.7589e-03  4.6586e-03  0:03:05 1887
   114  2.7690e-02  1.2924e-02  6.8519e-02  2.6215e-01  2.7637e-02  8.8005e-03  4.6321e-03  0:02:28 1886
   115  2.9347e-02  1.2665e-02  6.8216e-02  2.5242e-01  2.9295e-02  8.8592e-03  4.6218e-03  0:01:58 1885
   116  3.1113e-02  1.2399e-02  6.8016e-02  2.4449e-01  3.1061e-02  8.9137e-03  4.5833e-03  0:01:34 1884
   117  3.3009e-02  1.2109e-02  6.7880e-02  2.3859e-01  3.2957e-02  8.9754e-03  4.5272e-03  0:01:15 1883
   118  3.4787e-02  1.1889e-02  6.7797e-02  2.3560e-01  3.4735e-02  9.0371e-03  4.5045e-03  0:07:17 1882
   119  3.6461e-02  1.1693e-02  6.7671e-02  2.3597e-01  3.6407e-02  9.0719e-03  4.4731e-03  0:05:49 1881
   120  3.7795e-02  1.1535e-02  6.7718e-02  2.4014e-01  3.7741e-02  9.0986e-03  4.4480e-03  0:04:39 1880
   121  3.8876e-02  1.1410e-02  6.7937e-02  2.4764e-01  3.8821e-02  9.1364e-03  4.4352e-03  0:03:43 1879

  iter  continuity  x-velocity  y-velocity  z-velocity      energy           k       omega     time/iter
   122  3.9777e-02  1.1323e-02  6.8353e-02  2.5679e-01  3.9720e-02  9.1647e-03  4.4037e-03  0:02:59 1878
   123  4.0530e-02  1.1260e-02  6.8896e-02  2.6780e-01  4.0471e-02  9.2190e-03  4.3680e-03  0:02:23 1877
   124  4.1163e-02  1.1215e-02  6.9433e-02  2.7965e-01  4.1103e-02  9.2617e-03  4.3366e-03  0:01:54 1876
   125  4.1694e-02  1.1179e-02  6.9979e-02  2.9172e-01  4.1632e-02  9.3241e-03  4.3202e-03  0:01:31 1875
   126  4.2150e-02  1.1127e-02  7.0534e-02  3.0344e-01  4.2087e-02  9.3677e-03  4.2815e-03  0:07:28 1874
   127  4.2550e-02  1.1120e-02  7.1102e-02  3.1463e-01  4.2485e-02  9.4409e-03  4.2372e-03  0:05:58 1873
   128  4.2852e-02  1.1149e-02  7.1627e-02  3.2482e-01  4.2785e-02  9.5190e-03  4.2058e-03  0:04:46 1872
   129  4.3081e-02  1.1209e-02  7.2201e-02  3.3361e-01  4.3013e-02  9.6028e-03  4.1764e-03  0:03:49 1871
   130  4.3265e-02  1.1285e-02  7.2772e-02  3.4098e-01  4.3195e-02  9.6613e-03  4.1561e-03  0:03:03 1870
   131  4.3409e-02  1.1370e-02  7.3413e-02  3.4679e-01  4.3337e-02  9.7096e-03  4.1469e-03  0:02:26 1869
   132  4.3497e-02  1.1472e-02  7.4123e-02  3.5110e-01  4.3424e-02  9.7590e-03  4.1290e-03  0:01:57 1868

  iter  continuity  x-velocity  y-velocity  z-velocity      energy           k       omega     time/iter
   133  4.3466e-02  1.1587e-02  7.4820e-02  3.5428e-01  4.3391e-02  9.7936e-03  4.0984e-03  0:01:34 1867
   134  4.3337e-02  1.1687e-02  7.5464e-02  3.5579e-01  4.3261e-02  9.8339e-03  4.0732e-03  0:07:28 1866
   135  4.3066e-02  1.1773e-02  7.6067e-02  3.5532e-01  4.2989e-02  9.8637e-03  4.0614e-03  0:05:58 1865
   136  4.2736e-02  1.1821e-02  7.6653e-02  3.5336e-01  4.2659e-02  9.8973e-03  4.0347e-03  0:04:46 1864
   137  4.2295e-02  1.1919e-02  7.7193e-02  3.4956e-01  4.2217e-02  9.9121e-03  3.9983e-03  0:03:49 1863
   138  4.1659e-02  1.2017e-02  7.7724e-02  3.4409e-01  4.1582e-02  9.9174e-03  3.9632e-03  0:03:03 1862
   139  4.0938e-02  1.2095e-02  7.8250e-02  3.3666e-01  4.0861e-02  9.9136e-03  3.9373e-03  0:02:26 1861
   140  4.0145e-02  1.2161e-02  7.8770e-02  3.2835e-01  4.0069e-02  9.9186e-03  3.9321e-03  0:01:57 1860
   141  3.9318e-02  1.2216e-02  7.9285e-02  3.1928e-01  3.9242e-02  9.9237e-03  3.9165e-03  0:01:34 1859
   142  3.8287e-02  1.2280e-02  7.9764e-02  3.0951e-01  3.8213e-02  9.9298e-03  3.8946e-03  0:01:15 1858
   143  3.6971e-02  1.2359e-02  8.0186e-02  2.9927e-01  3.6898e-02  9.9144e-03  3.8710e-03  0:07:11 1857

  iter  continuity  x-velocity  y-velocity  z-velocity      energy           k       omega     time/iter
   144  3.5563e-02  1.2445e-02  8.0568e-02  2.8896e-01  3.5492e-02  9.8937e-03  3.8542e-03  0:05:45 1856
   145  3.3947e-02  1.2497e-02  8.0958e-02  2.7933e-01  3.3878e-02  9.8678e-03  3.8362e-03  0:04:36 1855
   146  3.2058e-02  1.2582e-02  8.1256e-02  2.7120e-01  3.1992e-02  9.8275e-03  3.8208e-03  0:03:40 1854
   147  3.0028e-02  1.2680e-02  8.1421e-02  2.6669e-01  2.9965e-02  9.8223e-03  3.8051e-03  0:02:56 1853
   148  2.8211e-02  1.2765e-02  8.1434e-02  2.6549e-01  2.8149e-02  9.8384e-03  3.8208e-03  0:02:21 1852
   149  2.6822e-02  1.2842e-02  8.1309e-02  2.6681e-01  2.6761e-02  9.8378e-03  3.8353e-03  0:01:53 1851
   150  2.6006e-02  1.2913e-02  8.1071e-02  2.7004e-01  2.5946e-02  9.8464e-03  3.8502e-03  0:01:30 1850
   151  2.5780e-02  1.2988e-02  8.0710e-02  2.7524e-01  2.5720e-02  9.8014e-03  3.8662e-03  0:07:22 1849
   152  2.5748e-02  1.3057e-02  8.0341e-02  2.8108e-01  2.5687e-02  9.7830e-03  3.8853e-03  0:05:53 1848
   153  2.5667e-02  1.3135e-02  8.0003e-02  2.8721e-01  2.5605e-02  9.8045e-03  3.9206e-03  0:04:42 1847
   154  2.5401e-02  1.3195e-02  7.9705e-02  2.9380e-01  2.5340e-02  9.8172e-03  3.9261e-03  0:03:46 1846

  iter  continuity  x-velocity  y-velocity  z-velocity      energy           k       omega     time/iter
   155  2.5055e-02  1.3253e-02  7.9408e-02  3.0214e-01  2.4993e-02  9.8197e-03  3.9096e-03  0:03:01 1845
   156  2.4655e-02  1.3332e-02  7.9022e-02  3.1297e-01  2.4594e-02  9.8366e-03  3.8812e-03  0:02:24 1844
   157  2.4263e-02  1.3423e-02  7.8630e-02  3.2654e-01  2.4201e-02  9.8222e-03  3.8715e-03  0:01:55 1843
   158  2.3992e-02  1.3494e-02  7.8279e-02  3.4141e-01  2.3931e-02  9.7948e-03  3.8877e-03  0:01:32 1842
   159  2.3901e-02  1.3535e-02  7.7912e-02  3.5960e-01  2.3839e-02  9.7709e-03  3.9127e-03  0:07:22 1841
   160  2.3793e-02  1.3542e-02  7.7654e-02  3.8789e-01  2.3731e-02  9.7538e-03  3.9208e-03  0:05:53 1840
   161  2.3580e-02  1.3540e-02  7.7439e-02  4.2178e-01  2.3518e-02  9.7637e-03  3.9262e-03  0:04:43 1839
   162  2.3237e-02  1.3542e-02  7.7248e-02  4.6663e-01  2.3176e-02  9.7932e-03  3.9556e-03  0:03:46 1838
   163  2.3067e-02  1.3558e-02  7.7027e-02  5.3315e-01  2.3006e-02  9.7911e-03  3.9510e-03  0:03:01 1837
   164  2.3099e-02  1.3587e-02  7.6785e-02  6.2552e-01  2.3038e-02  9.7900e-03  3.9436e-03  0:02:24 1836
   165  2.3134e-02  1.3641e-02  7.6538e-02  7.5241e-01  2.3073e-02  9.7904e-03  3.9463e-03  0:01:55 1835

  iter  continuity  x-velocity  y-velocity  z-velocity      energy           k       omega     time/iter
   166  2.3080e-02  1.3709e-02  7.6266e-02  9.1305e-01  2.3019e-02  9.8038e-03  3.9632e-03  0:01:32 1834
   167  2.3111e-02  1.3789e-02  7.6137e-02  1.0963e+00  2.3050e-02  9.8086e-03  3.9732e-03  0:07:20 1833
   168  2.3364e-02  1.3891e-02  7.6048e-02  1.3652e+00  2.3303e-02  9.8178e-03  3.9841e-03  0:05:52 1832
   169  2.3744e-02  1.3962e-02  7.6062e-02  1.6648e+00  2.3683e-02  9.8596e-03  3.9961e-03  0:04:42 1831
   170  2.4105e-02  1.4010e-02  7.6078e-02  2.1438e+00  2.4043e-02  9.8978e-03  4.0025e-03  0:03:45 1830
   171  2.4368e-02  1.4069e-02  7.6108e-02  2.7772e+00  2.4306e-02  9.9669e-03  4.0041e-03  0:03:00 1829
   172  2.4744e-02  1.4130e-02  7.6256e-02  3.6728e+00  2.4683e-02  9.9995e-03  3.9926e-03  0:02:24 1828
   173  2.5135e-02  1.4180e-02  7.6376e-02  4.8315e+00  2.5073e-02  1.0010e-02  3.9877e-03  0:01:55 1827
   174  2.5492e-02  1.4231e-02  7.6257e-02  6.1635e+00  2.5430e-02  1.0039e-02  3.9919e-03  0:01:32 1826
   175  2.5965e-02  1.4300e-02  7.6255e-02  8.0420e+00  2.5903e-02  1.0069e-02  3.9893e-03  0:01:14 1825
   176  2.6517e-02  1.4394e-02  7.6362e-02  1.0526e+01  2.6455e-02  1.0111e-02  3.9982e-03  0:07:04 1824

  iter  continuity  x-velocity  y-velocity  z-velocity      energy           k       omega     time/iter
   177  2.7135e-02  1.4484e-02  7.6390e-02  1.3309e+01  2.7073e-02  1.0152e-02  4.0058e-03  0:05:39 1823
   178  2.7825e-02  1.4586e-02  7.6484e-02  1.7111e+01  2.7761e-02  1.0241e-02  3.9920e-03  0:04:31 1822
   179  2.8476e-02  1.4691e-02  7.6828e-02  2.1667e+01  2.8412e-02  1.0302e-02  3.9937e-03  0:03:37 1821
   180  2.9018e-02  1.4776e-02  7.6979e-02  2.4533e+01  2.8954e-02  1.0347e-02  3.9940e-03  0:02:53 1820
   181  2.9463e-02  1.4824e-02  7.7092e-02  2.5876e+01  2.9398e-02  1.0407e-02  4.0008e-03  0:02:18 1819
   182  2.9999e-02  1.4881e-02  7.7248e-02  2.5832e+01  2.9934e-02  1.0441e-02  4.0067e-03  0:01:51 1818
   183  3.0613e-02  1.4931e-02  7.7408e-02  2.4617e+01  3.0548e-02  1.0476e-02  3.9917e-03  0:01:28 1817
   184  3.1185e-02  1.4982e-02  7.7539e-02  2.2429e+01  3.1119e-02  1.0520e-02  3.9821e-03  0:07:14 1816
   185  3.1740e-02  1.5027e-02  7.7734e-02  2.0080e+01  3.1674e-02  1.0592e-02  3.9768e-03  0:05:47 1815
   186  3.2156e-02  1.5087e-02  7.7821e-02  1.8291e+01  3.2089e-02  1.0620e-02  3.9879e-03  0:04:37 1814
   187  3.2511e-02  1.5141e-02  7.7993e-02  1.7298e+01  3.2444e-02  1.0692e-02  4.0014e-03  0:03:42 1813

  iter  continuity  x-velocity  y-velocity  z-velocity      energy           k       omega     time/iter
   188  3.2863e-02  1.5191e-02  7.8080e-02  1.7770e+01  3.2795e-02  1.0750e-02  4.0151e-03  0:02:57 1812
   189  3.3067e-02  1.5229e-02  7.8180e-02  1.9026e+01  3.2999e-02  1.0837e-02  4.0366e-03  0:02:22 1811
   190  3.3083e-02  1.5237e-02  7.8262e-02  2.0302e+01  3.3014e-02  1.0882e-02  4.0455e-03  0:01:53 1810
   191  3.3111e-02  1.5246e-02  7.8388e-02  2.0921e+01  3.3043e-02  1.0928e-02  4.0395e-03  0:01:31 1809
   192  3.3057e-02  1.5253e-02  7.8471e-02  2.0953e+01  3.2990e-02  1.0979e-02  4.0547e-03  0:07:14 1808
   193  3.2793e-02  1.5248e-02  7.8532e-02  2.0715e+01  3.2726e-02  1.1016e-02  4.0636e-03  0:05:47 1807
   194  3.2566e-02  1.5226e-02  7.8552e-02  2.0187e+01  3.2499e-02  1.1085e-02  4.0740e-03  0:04:38 1806
   195  3.2243e-02  1.5203e-02  7.8540e-02  1.9479e+01  3.2176e-02  1.1150e-02  4.0803e-03  0:03:42 1805
   196  3.1818e-02  1.5171e-02  7.8550e-02  1.8616e+01  3.1751e-02  1.1207e-02  4.0969e-03  0:02:57 1804
   197  3.1362e-02  1.5136e-02  7.8545e-02  1.7747e+01  3.1296e-02  1.1257e-02  4.1244e-03  0:02:22 1803
   198  3.0806e-02  1.5082e-02  7.8521e-02  1.6861e+01  3.0740e-02  1.1308e-02  4.1221e-03  0:01:53 1802

  iter  continuity  x-velocity  y-velocity  z-velocity      energy           k       omega     time/iter
   199  3.0095e-02  1.5022e-02  7.8529e-02  1.6037e+01  3.0031e-02  1.1324e-02  4.1215e-03  0:01:31 1801
   200  2.9386e-02  1.4966e-02  7.8547e-02  1.5219e+01  2.9322e-02  1.1393e-02  4.1226e-03  0:01:13 1800
   201  2.8583e-02  1.4918e-02  7.8564e-02  1.4441e+01  2.8520e-02  1.1415e-02  4.1106e-03  0:06:58 1799
   202  2.7714e-02  1.4877e-02  7.8617e-02  1.3741e+01  2.7652e-02  1.1465e-02  4.1047e-03  0:05:34 1798
   203  2.6952e-02  1.4841e-02  7.8748e-02  1.3190e+01  2.6891e-02  1.1532e-02  4.1088e-03  0:04:27 1797
   204  2.6266e-02  1.4806e-02  7.8931e-02  1.2734e+01  2.6205e-02  1.1564e-02  4.1260e-03  0:03:34 1796
   205  2.5565e-02  1.4764e-02  7.9101e-02  1.2288e+01  2.5505e-02  1.1590e-02  4.1472e-03  0:02:51 1795
   206  2.4868e-02  1.4727e-02  7.9394e-02  1.1759e+01  2.4810e-02  1.1628e-02  4.1769e-03  0:02:17 1794
   207  2.4140e-02  1.4665e-02  7.9709e-02  1.1333e+01  2.4082e-02  1.1656e-02  4.1987e-03  0:01:49 1793
   208  2.3359e-02  1.4570e-02  8.0034e-02  1.1136e+01  2.3303e-02  1.1707e-02  4.2261e-03  0:01:27 1792
   209  2.2593e-02  1.4496e-02  8.0412e-02  1.1252e+01  2.2538e-02  1.1751e-02  4.2282e-03  0:07:08 1791

  iter  continuity  x-velocity  y-velocity  z-velocity      energy           k       omega     time/iter
   210  2.1776e-02  1.4453e-02  8.0753e-02  1.1511e+01  2.1722e-02  1.1796e-02  4.2136e-03  0:05:42 1790
   211  2.0956e-02  1.4453e-02  8.1063e-02  1.1807e+01  2.0904e-02  1.1810e-02  4.2098e-03  0:04:34 1789
   212  2.0200e-02  1.4466e-02  8.1342e-02  1.2187e+01  2.0149e-02  1.1785e-02  4.2054e-03  0:03:39 1788
   213  1.9590e-02  1.4482e-02  8.1595e-02  1.2763e+01  1.9539e-02  1.1815e-02  4.2085e-03  0:02:55 1787
   214  1.9102e-02  1.4515e-02  8.1868e-02  1.3075e+01  1.9052e-02  1.1884e-02  4.2299e-03  0:02:20 1786
   215  1.8702e-02  1.4545e-02  8.2224e-02  1.3599e+01  1.8652e-02  1.1927e-02  4.2571e-03  0:01:52 1785
   216  1.8341e-02  1.4549e-02  8.2571e-02  1.4344e+01  1.8292e-02  1.1955e-02  4.2750e-03  0:01:29 1784
   217  1.8076e-02  1.4489e-02  8.2937e-02  1.5355e+01  1.8028e-02  1.1957e-02  4.2801e-03  0:07:08 1783
   218  1.7867e-02  1.4434e-02  8.3247e-02  1.6339e+01  1.7819e-02  1.2007e-02  4.2956e-03  0:05:42 1782
   219  1.7652e-02  1.4442e-02  8.3463e-02  1.6832e+01  1.7605e-02  1.1956e-02  4.3072e-03  0:04:34 1781
   220  1.7454e-02  1.4485e-02  8.3573e-02  1.7231e+01  1.7408e-02  1.1963e-02  4.3220e-03  0:03:39 1780

  iter  continuity  x-velocity  y-velocity  z-velocity      energy           k       omega     time/iter
   221  1.7307e-02  1.4540e-02  8.3609e-02  1.7733e+01  1.7261e-02  1.1995e-02  4.3532e-03  0:02:55 1779
   222  1.7222e-02  1.4600e-02  8.3699e-02  1.8643e+01  1.7176e-02  1.1975e-02  4.3691e-03  0:02:20 1778
   223  1.7203e-02  1.4672e-02  8.3834e-02  1.8317e+01  1.7157e-02  1.2059e-02  4.3941e-03  0:01:52 1777
   224  1.7193e-02  1.4748e-02  8.4013e-02  1.8631e+01  1.7146e-02  1.2033e-02  4.4291e-03  0:01:29 1776
   225  1.7178e-02  1.4786e-02  8.4200e-02  1.9237e+01  1.7131e-02  1.1987e-02  4.4365e-03  0:01:11 1775
   226  1.7213e-02  1.4763e-02  8.4388e-02  2.0338e+01  1.7165e-02  1.1965e-02  4.4357e-03  0:06:52 1774
   227  1.7285e-02  1.4708e-02  8.4541e-02  2.1336e+01  1.7237e-02  1.1879e-02  4.4309e-03  0:05:29 1773
   228  1.7262e-02  1.4692e-02  8.4634e-02  2.1527e+01  1.7215e-02  1.1868e-02  4.4414e-03  0:04:23 1772
   229  1.7203e-02  1.4688e-02  8.4674e-02  2.1440e+01  1.7156e-02  1.1879e-02  4.4661e-03  0:03:31 1771
   230  1.7232e-02  1.4713e-02  8.4724e-02  2.1845e+01  1.7185e-02  1.1852e-02  4.4776e-03  0:02:48 1770
   231  1.7248e-02  1.4741e-02  8.4780e-02  2.2611e+01  1.7202e-02  1.1854e-02  4.4724e-03  0:02:15 1769

  iter  continuity  x-velocity  y-velocity  z-velocity      energy           k       omega     time/iter
   232  1.7313e-02  1.4779e-02  8.4853e-02  2.1900e+01  1.7267e-02  1.1806e-02  4.4845e-03  0:01:48 1768
   233  1.7419e-02  1.4814e-02  8.4944e-02  2.1503e+01  1.7373e-02  1.1720e-02  4.5005e-03  0:01:26 1767
   234  1.7638e-02  1.4819e-02  8.5032e-02  2.1725e+01  1.7592e-02  1.1670e-02  4.4994e-03  0:07:02 1766
   235  1.7950e-02  1.4775e-02  8.5111e-02  2.2343e+01  1.7903e-02  1.1584e-02  4.5006e-03  0:05:37 1765
   236  1.8309e-02  1.4670e-02  8.5171e-02  2.3348e+01  1.8262e-02  1.1614e-02  4.5069e-03  0:04:30 1764
   237  1.8635e-02  1.4593e-02  8.5247e-02  2.3509e+01  1.8589e-02  1.1600e-02  4.4941e-03  0:03:36 1763
   238  1.9030e-02  1.4525e-02  8.5316e-02  2.3231e+01  1.8985e-02  1.1558e-02  4.4758e-03  0:02:52 1762
   239  1.9575e-02  1.4485e-02  8.5404e-02  2.2952e+01  1.9532e-02  1.1542e-02  4.4656e-03  0:02:18 1761
   240  2.0173e-02  1.4435e-02  8.5487e-02  2.2470e+01  2.0131e-02  1.1472e-02  4.4590e-03  0:01:50 1760
   241  2.0866e-02  1.4388e-02  8.5587e-02  2.1927e+01  2.0824e-02  1.1390e-02  4.4540e-03  0:07:20 1759
   242  2.1707e-02  1.4320e-02  8.5717e-02  2.1561e+01  2.1666e-02  1.1343e-02  4.4277e-03  0:05:52 1758

  iter  continuity  x-velocity  y-velocity  z-velocity      energy           k       omega     time/iter
   243  2.2731e-02  1.4246e-02  8.5847e-02  2.1484e+01  2.2689e-02  1.1304e-02  4.4267e-03  0:04:41 1757
   244  2.3994e-02  1.4169e-02  8.5981e-02  2.1698e+01  2.3952e-02  1.1279e-02  4.4258e-03  0:03:45 1756
   245  2.5386e-02  1.4077e-02  8.6126e-02  2.2035e+01  2.5344e-02  1.1216e-02  4.4141e-03  0:03:00 1755
   246  2.6742e-02  1.4000e-02  8.6274e-02  2.2376e+01  2.6700e-02  1.1182e-02  4.3883e-03  0:02:24 1754
   247  2.8028e-02  1.3901e-02  8.6435e-02  2.2433e+01  2.7986e-02  1.1131e-02  4.3612e-03  0:01:55 1753
   248  2.9222e-02  1.3813e-02  8.6600e-02  2.2655e+01  2.9180e-02  1.1066e-02  4.3442e-03  0:01:32 1752
   249  3.0339e-02  1.3724e-02  8.6742e-02  2.2951e+01  3.0297e-02  1.1013e-02  4.3171e-03  0:07:04 1751
   250  3.1449e-02  1.3643e-02  8.6892e-02  2.3088e+01  3.1406e-02  1.0993e-02  4.3059e-03  0:05:39 1750
   251  3.2474e-02  1.3565e-02  8.7044e-02  2.2949e+01  3.2430e-02  1.0978e-02  4.3028e-03  0:04:31 1749
   252  3.3387e-02  1.3488e-02  8.7193e-02  2.2904e+01  3.3342e-02  1.0950e-02  4.2921e-03  0:03:37 1748
   253  3.4130e-02  1.3436e-02  8.7342e-02  2.2969e+01  3.4083e-02  1.0893e-02  4.2562e-03  0:02:53 1747

  iter  continuity  x-velocity  y-velocity  z-velocity      energy           k       omega     time/iter
   254  3.4721e-02  1.3417e-02  8.7484e-02  2.3214e+01  3.4673e-02  1.0861e-02  4.2313e-03  0:02:18 1746
   255  3.5140e-02  1.3418e-02  8.7608e-02  2.3691e+01  3.5092e-02  1.0823e-02  4.1945e-03  0:01:51 1745
   256  3.5508e-02  1.3375e-02  8.7759e-02  2.4326e+01  3.5459e-02  1.0774e-02  4.1762e-03  0:01:28 1744
   257  3.5785e-02  1.3306e-02  8.7889e-02  2.5017e+01  3.5735e-02  1.0736e-02  4.1777e-03  0:06:59 1743
   258  3.6031e-02  1.3253e-02  8.8003e-02  2.5491e+01  3.5980e-02  1.0717e-02  4.1678e-03  0:05:35 1742
   259  3.6269e-02  1.3211e-02  8.8119e-02  2.5880e+01  3.6217e-02  1.0683e-02  4.1488e-03  0:04:28 1741
   260  3.6532e-02  1.3177e-02  8.8246e-02  2.6410e+01  3.6479e-02  1.0666e-02  4.1328e-03  0:03:34 1740
   261  3.6793e-02  1.3153e-02  8.8383e-02  2.7101e+01  3.6738e-02  1.0632e-02  4.1097e-03  0:02:51 1739
   262  3.7014e-02  1.3163e-02  8.8529e-02  2.7632e+01  3.6958e-02  1.0628e-02  4.0630e-03  0:02:17 1738
   263  3.7153e-02  1.3220e-02  8.8695e-02  2.8219e+01  3.7096e-02  1.0631e-02  4.0366e-03  0:01:50 1737
   264  3.7193e-02  1.3289e-02  8.8894e-02  2.8966e+01  3.7136e-02  1.0636e-02  4.0192e-03  0:01:28 1736

  iter  continuity  x-velocity  y-velocity  z-velocity      energy           k       omega     time/iter
   265  3.7227e-02  1.3321e-02  8.9118e-02  2.9668e+01  3.7169e-02  1.0627e-02  3.9923e-03  0:01:10 1735
   266  3.7132e-02  1.3354e-02  8.9355e-02  3.0125e+01  3.7073e-02  1.0645e-02  3.9779e-03  0:06:43 1734
   267  3.6939e-02  1.3358e-02  8.9600e-02  3.0402e+01  3.6880e-02  1.0651e-02  3.9586e-03  0:05:22 1733
   268  3.6615e-02  1.3371e-02  8.9856e-02  3.0721e+01  3.6556e-02  1.0665e-02  3.9351e-03  0:04:17 1732
   269  3.6225e-02  1.3388e-02  9.0114e-02  3.1244e+01  3.6166e-02  1.0698e-02  3.9169e-03  0:03:26 1731
   270  3.5818e-02  1.3427e-02  9.0392e-02  3.1719e+01  3.5759e-02  1.0706e-02  3.8996e-03  0:02:45 1730
   271  3.5303e-02  1.3474e-02  9.0689e-02  3.1978e+01  3.5243e-02  1.0698e-02  3.8762e-03  0:02:12 1729
   272  3.4755e-02  1.3554e-02  9.1000e-02  3.2249e+01  3.4696e-02  1.0696e-02  3.8584e-03  0:01:45 1728
   273  3.4027e-02  1.3648e-02  9.1356e-02  3.2587e+01  3.3969e-02  1.0739e-02  3.8472e-03  0:01:24 1727
   274  3.3214e-02  1.3711e-02  9.1759e-02  3.2800e+01  3.3157e-02  1.0759e-02  3.8369e-03  0:06:52 1726
   275  3.2237e-02  1.3783e-02  9.2138e-02  3.2796e+01  3.2181e-02  1.0779e-02  3.8416e-03  0:05:30 1725

  iter  continuity  x-velocity  y-velocity  z-velocity      energy           k       omega     time/iter
   276  3.0981e-02  1.3839e-02  9.2505e-02  3.2710e+01  3.0927e-02  1.0804e-02  3.8408e-03  0:04:24 1724
   277  2.9667e-02  1.3907e-02  9.2848e-02  3.2653e+01  2.9615e-02  1.0830e-02  3.8355e-03  0:03:31 1723
   278  2.8285e-02  1.4003e-02  9.3105e-02  3.2750e+01  2.8235e-02  1.0859e-02  3.8362e-03  0:02:49 1722
   279  2.7063e-02  1.4109e-02  9.3324e-02  3.2805e+01  2.7013e-02  1.0884e-02  3.8405e-03  0:02:15 1721
   280  2.6135e-02  1.4204e-02  9.3490e-02  3.2803e+01  2.6086e-02  1.0909e-02  3.8371e-03  0:01:48 1720
   281  2.5363e-02  1.4301e-02  9.3581e-02  3.2895e+01  2.5316e-02  1.0967e-02  3.8345e-03  0:01:26 1719
   282  2.4854e-02  1.4379e-02  9.3616e-02  3.3052e+01  2.4807e-02  1.1025e-02  3.8543e-03  0:06:52 1718
   283  2.4678e-02  1.4408e-02  9.3636e-02  3.3315e+01  2.4632e-02  1.1079e-02  3.8832e-03  0:05:30 1717
   284  2.4398e-02  1.4449e-02  9.3646e-02  3.3639e+01  2.4352e-02  1.1139e-02  3.9093e-03  0:04:24 1716
   285  2.3829e-02  1.4495e-02  9.3649e-02  3.3909e+01  2.3783e-02  1.1189e-02  3.9209e-03  0:03:31 1715
   286  2.3035e-02  1.4589e-02  9.3569e-02  3.4309e+01  2.2990e-02  1.1213e-02  3.9300e-03  0:02:49 1714

  iter  continuity  x-velocity  y-velocity  z-velocity      energy           k       omega     time/iter
   287  2.2353e-02  1.4687e-02  9.3378e-02  3.4726e+01  2.2309e-02  1.1241e-02  3.9333e-03  0:02:15 1713
   288  2.1843e-02  1.4753e-02  9.3103e-02  3.5063e+01  2.1799e-02  1.1267e-02  3.9275e-03  0:01:48 1712
   289  2.1384e-02  1.4781e-02  9.2801e-02  3.5352e+01  2.1340e-02  1.1283e-02  3.9252e-03  0:01:26 1711
   290  2.0891e-02  1.4749e-02  9.2548e-02  3.5705e+01  2.0847e-02  1.1325e-02  3.9346e-03  0:01:09 1710
   291  2.0449e-02  1.4672e-02  9.2327e-02  3.6280e+01  2.0406e-02  1.1367e-02  3.9435e-03  0:06:37 1709
   292  2.0099e-02  1.4554e-02  9.2152e-02  3.6827e+01  2.0056e-02  1.1418e-02  3.9472e-03  0:05:17 1708
   293  1.9892e-02  1.4480e-02  9.1974e-02  3.7343e+01  1.9850e-02  1.1449e-02  3.9448e-03  0:04:14 1707
   294  1.9624e-02  1.4450e-02  9.1767e-02  3.7743e+01  1.9582e-02  1.1464e-02  3.9488e-03  0:03:23 1706
   295  1.9297e-02  1.4461e-02  9.1541e-02  3.8139e+01  1.9256e-02  1.1489e-02  3.9752e-03  0:02:42 1705
   296  1.9002e-02  1.4476e-02  9.1277e-02  3.8655e+01  1.8960e-02  1.1521e-02  3.9956e-03  0:02:10 1704
   297  1.8835e-02  1.4470e-02  9.0997e-02  3.8860e+01  1.8794e-02  1.1551e-02  4.0041e-03  0:01:44 1703

  iter  continuity  x-velocity  y-velocity  z-velocity      energy           k       omega     time/iter
   298  1.8687e-02  1.4419e-02  9.0722e-02  3.8936e+01  1.8646e-02  1.1565e-02  4.0061e-03  0:01:23 1702
   299  1.8639e-02  1.4320e-02  9.0488e-02  3.8981e+01  1.8598e-02  1.1595e-02  4.0098e-03  0:06:46 1701
   300  1.8783e-02  1.4210e-02  9.0267e-02  3.8918e+01  1.8742e-02  1.1612e-02  4.0094e-03  0:05:25 1700
   301  1.8942e-02  1.4072e-02  9.0062e-02  3.8533e+01  1.8902e-02  1.1644e-02  4.0163e-03  0:04:20 1699
   302  1.9142e-02  1.3967e-02  8.9902e-02  3.8476e+01  1.9102e-02  1.1657e-02  4.0262e-03  0:03:28 1698
   303  1.9102e-02  1.3900e-02  8.9740e-02  3.8496e+01  1.9061e-02  1.1654e-02  4.0323e-03  0:02:46 1697
   304  1.9111e-02  1.3878e-02  8.9547e-02  3.8671e+01  1.9070e-02  1.1668e-02  4.0402e-03  0:02:13 1696
   305  1.9192e-02  1.3864e-02  8.9365e-02  3.9622e+01  1.9151e-02  1.1684e-02  4.0520e-03  0:01:46 1695
   306  1.9490e-02  1.3842e-02  8.9208e-02  4.0392e+01  1.9449e-02  1.1716e-02  4.0587e-03  0:01:25 1694
   307  1.9639e-02  1.3789e-02  8.8964e-02  4.1061e+01  1.9599e-02  1.1712e-02  4.0586e-03  0:06:46 1693
   308  1.9814e-02  1.3734e-02  8.8822e-02  4.1669e+01  1.9773e-02  1.1715e-02  4.0527e-03  0:05:25 1692

  iter  continuity  x-velocity  y-velocity  z-velocity      energy           k       omega     time/iter
   309  2.0135e-02  1.3674e-02  8.8710e-02  4.2732e+01  2.0094e-02  1.1734e-02  4.0588e-03  0:04:20 1691
   310  2.0527e-02  1.3594e-02  8.8634e-02  4.3810e+01  2.0485e-02  1.1750e-02  4.0656e-03  0:03:28 1690
   311  2.0783e-02  1.3516e-02  8.8420e-02  4.4324e+01  2.0740e-02  1.1748e-02  4.0689e-03  0:02:46 1689
   312  2.1077e-02  1.3471e-02  8.8201e-02  4.5255e+01  2.1034e-02  1.1765e-02  4.0659e-03  0:02:13 1688
   313  2.1318e-02  1.3451e-02  8.7979e-02  4.6181e+01  2.1274e-02  1.1774e-02  4.0690e-03  0:01:46 1687
   314  2.1627e-02  1.3460e-02  8.7790e-02  4.7576e+01  2.1582e-02  1.1804e-02  4.0688e-03  0:01:25 1686
   315  2.2063e-02  1.3486e-02  8.7603e-02  4.9431e+01  2.2018e-02  1.1830e-02  4.0618e-03  0:01:08 1685
   316  2.2560e-02  1.3498e-02  8.7278e-02  5.1087e+01  2.2515e-02  1.1818e-02  4.0648e-03  0:06:31 1684
   317  2.2984e-02  1.3494e-02  8.7070e-02  5.2804e+01  2.2938e-02  1.1828e-02  4.0590e-03  0:05:13 1683
   318  2.3467e-02  1.3492e-02  8.6905e-02  5.4374e+01  2.3421e-02  1.1858e-02  4.0564e-03  0:04:10 1682
   319  2.3923e-02  1.3481e-02  8.6610e-02  5.6517e+01  2.3875e-02  1.1889e-02  4.0604e-03  0:03:20 1681

  iter  continuity  x-velocity  y-velocity  z-velocity      energy           k       omega     time/iter
   320  2.4365e-02  1.3451e-02  8.6254e-02  5.8696e+01  2.4316e-02  1.1916e-02  4.0454e-03  0:02:40 1680
   321  2.4824e-02  1.3441e-02  8.6028e-02  6.1248e+01  2.4774e-02  1.1922e-02  4.0299e-03  0:02:08 1679
   322  2.5269e-02  1.3449e-02  8.5831e-02  6.3810e+01  2.5219e-02  1.1925e-02  4.0322e-03  0:01:42 1678
   323  2.5616e-02  1.3472e-02  8.5580e-02  6.6065e+01  2.5565e-02  1.1950e-02  4.0309e-03  0:01:22 1677
   324  2.5949e-02  1.3509e-02  8.5406e-02  6.8286e+01  2.5897e-02  1.1954e-02  4.0362e-03  0:06:40 1676
   325  2.6172e-02  1.3549e-02  8.5233e-02  7.0856e+01  2.6119e-02  1.1948e-02  4.0346e-03  0:05:20 1675
   326  2.6219e-02  1.3545e-02  8.5080e-02  7.3846e+01  2.6166e-02  1.1972e-02  4.0242e-03  0:04:16 1674
   327  2.6438e-02  1.3548e-02  8.4893e-02  7.7522e+01  2.6385e-02  1.2016e-02  4.0159e-03  0:03:25 1673
   328  2.6667e-02  1.3553e-02  8.4749e-02  8.1422e+01  2.6614e-02  1.1991e-02  4.0088e-03  0:02:44 1672
   329  2.6881e-02  1.3567e-02  8.4705e-02  8.5507e+01  2.6828e-02  1.1987e-02  3.9938e-03  0:02:11 1671
   330  2.6981e-02  1.3579e-02  8.4691e-02  9.0060e+01  2.6928e-02  1.1974e-02  3.9905e-03  0:01:45 1670

  iter  continuity  x-velocity  y-velocity  z-velocity      energy           k       omega     time/iter
   331  2.7016e-02  1.3593e-02  8.4657e-02  9.4524e+01  2.6963e-02  1.1988e-02  3.9960e-03  0:01:24 1669
   332  2.6961e-02  1.3615e-02  8.4702e-02  9.8889e+01  2.6908e-02  1.2030e-02  3.9951e-03  0:06:40 1668
   333  2.6798e-02  1.3642e-02  8.4743e-02  1.0309e+02  2.6746e-02  1.2016e-02  3.9934e-03  0:05:20 1667
   334  2.6599e-02  1.3679e-02  8.4824e-02  1.0769e+02  2.6548e-02  1.2006e-02  3.9834e-03  0:04:16 1666
   335  2.6337e-02  1.3713e-02  8.4918e-02  1.1208e+02  2.6286e-02  1.1989e-02  3.9787e-03  0:03:25 1665
   336  2.6121e-02  1.3758e-02  8.5121e-02  1.1616e+02  2.6071e-02  1.2009e-02  3.9842e-03  0:02:44 1664
   337  2.5881e-02  1.3790e-02  8.5351e-02  1.1995e+02  2.5831e-02  1.1994e-02  3.9960e-03  0:02:11 1663
   338  2.5537e-02  1.3843e-02  8.5628e-02  1.2194e+02  2.5488e-02  1.1963e-02  3.9980e-03  0:01:45 1662
   339  2.5056e-02  1.3877e-02  8.5954e-02  1.2365e+02  2.5008e-02  1.1957e-02  3.9965e-03  0:01:24 1661
   340  2.4532e-02  1.3918e-02  8.6306e-02  1.2633e+02  2.4485e-02  1.1971e-02  4.0033e-03  0:01:07 1660
   341  2.3904e-02  1.3963e-02  8.6650e-02  1.2759e+02  2.3859e-02  1.1972e-02  4.0206e-03  0:06:25 1659

  iter  continuity  x-velocity  y-velocity  z-velocity      energy           k       omega     time/iter
   342  2.3232e-02  1.4003e-02  8.6948e-02  1.2753e+02  2.3187e-02  1.1964e-02  4.0351e-03  0:05:08 1658
   343  2.2539e-02  1.4042e-02  8.7206e-02  1.2665e+02  2.2496e-02  1.1928e-02  4.0584e-03  0:04:06 1657
   344  2.1849e-02  1.4101e-02  8.7507e-02  1.2582e+02  2.1806e-02  1.1933e-02  4.0728e-03  0:03:17 1656
   345  2.1167e-02  1.4188e-02  8.7827e-02  1.2708e+02  2.1125e-02  1.1948e-02  4.0941e-03  0:02:37 1655
   346  2.0554e-02  1.4308e-02  8.8177e-02  1.2790e+02  2.0512e-02  1.1978e-02  4.1106e-03  0:02:06 1654
   347  1.9865e-02  1.4419e-02  8.8543e-02  1.2979e+02  1.9823e-02  1.1983e-02  4.1129e-03  0:01:41 1653
   348  1.9283e-02  1.4511e-02  8.8981e-02  1.3262e+02  1.9240e-02  1.1991e-02  4.1187e-03  0:06:51 1652
   349  1.8769e-02  1.4542e-02  8.9394e-02  1.3812e+02  1.8727e-02  1.1983e-02  4.1318e-03  0:05:28 1651
   350  1.8324e-02  1.4589e-02  8.9754e-02  1.4192e+02  1.8282e-02  1.1974e-02  4.1466e-03  0:04:23 1650
   351  1.7955e-02  1.4636e-02  8.9992e-02  1.4433e+02  1.7914e-02  1.1960e-02  4.1634e-03  0:03:30 1649
   352  1.7675e-02  1.4656e-02  9.0153e-02  1.4606e+02  1.7634e-02  1.1954e-02  4.1800e-03  0:02:48 1648

  iter  continuity  x-velocity  y-velocity  z-velocity      energy           k       omega     time/iter
   353  1.7531e-02  1.4666e-02  9.0237e-02  1.4800e+02  1.7489e-02  1.1968e-02  4.2208e-03  0:02:14 1647
   354  1.7478e-02  1.4680e-02  9.0292e-02  1.5267e+02  1.7436e-02  1.1973e-02  4.2585e-03  0:01:47 1646
   355  1.7383e-02  1.4718e-02  9.0331e-02  1.5849e+02  1.7340e-02  1.1980e-02  4.2693e-03  0:01:26 1645
   356  1.7219e-02  1.4826e-02  9.0309e-02  1.6077e+02  1.7176e-02  1.1991e-02  4.2922e-03  0:01:09 1644
   357  1.7143e-02  1.4956e-02  9.0272e-02  1.6626e+02  1.7099e-02  1.2023e-02  4.2950e-03  0:06:23 1643
   358  1.7127e-02  1.5058e-02  9.0215e-02  1.7296e+02  1.7082e-02  1.2031e-02  4.3159e-03  0:05:07 1642
   359  1.7187e-02  1.5085e-02  9.0103e-02  1.8093e+02  1.7143e-02  1.2030e-02  4.3383e-03  0:04:05 1641
   360  1.7305e-02  1.5110e-02  8.9957e-02  1.8583e+02  1.7260e-02  1.2012e-02  4.3790e-03  0:03:16 1640
   361  1.7488e-02  1.5066e-02  8.9741e-02  1.8938e+02  1.7444e-02  1.1987e-02  4.3847e-03  0:02:37 1639
   362  1.7720e-02  1.4987e-02  8.9485e-02  1.9194e+02  1.7676e-02  1.2002e-02  4.4146e-03  0:02:05 1638
   363  1.8003e-02  1.4900e-02  8.9254e-02  1.9608e+02  1.7958e-02  1.2011e-02  4.4599e-03  0:01:40 1637

  iter  continuity  x-velocity  y-velocity  z-velocity      energy           k       omega     time/iter
   364  1.8174e-02  1.4820e-02  8.9043e-02  1.9913e+02  1.8129e-02  1.2011e-02  4.4945e-03  0:01:20 1636
   365  1.8257e-02  1.4762e-02  8.8823e-02  1.9787e+02  1.8213e-02  1.2009e-02  4.5122e-03  0:06:31 1635
   366  1.8407e-02  1.4703e-02  8.8575e-02  1.9722e+02  1.8363e-02  1.2006e-02  4.5396e-03  0:05:13 1634
   367  1.8605e-02  1.4702e-02  8.8307e-02  1.9894e+02  1.8561e-02  1.1992e-02  4.5582e-03  0:04:10 1633
   368  1.8829e-02  1.4702e-02  8.8021e-02  2.0120e+02  1.8785e-02  1.1978e-02  4.5650e-03  0:03:20 1632
   369  1.9170e-02  1.4648e-02  8.7744e-02  2.0280e+02  1.9126e-02  1.1970e-02  4.5793e-03  0:02:40 1631
   370  1.9603e-02  1.4564e-02  8.7459e-02  2.0343e+02  1.9560e-02  1.2002e-02  4.5880e-03  0:02:08 1630
   371  2.0098e-02  1.4433e-02  8.7222e-02  2.0508e+02  2.0055e-02  1.2032e-02  4.6101e-03  0:01:42 1629
   372  2.0628e-02  1.4259e-02  8.7025e-02  2.0751e+02  2.0585e-02  1.2050e-02  4.6052e-03  0:01:22 1628
   373  2.1165e-02  1.4095e-02  8.6883e-02  2.0869e+02  2.1122e-02  1.2064e-02  4.6103e-03  0:06:31 1627
   374  2.1620e-02  1.3941e-02  8.6775e-02  2.1023e+02  2.1578e-02  1.2079e-02  4.6372e-03  0:05:12 1626

  iter  continuity  x-velocity  y-velocity  z-velocity      energy           k       omega     time/iter
   375  2.2090e-02  1.3764e-02  8.6681e-02  2.1264e+02  2.2050e-02  1.2065e-02  4.6407e-03  0:04:10 1625
   376  2.2678e-02  1.3645e-02  8.6595e-02  2.1474e+02  2.2638e-02  1.2032e-02  4.6406e-03  0:03:20 1624
   377  2.3337e-02  1.3544e-02  8.6541e-02  2.1625e+02  2.3296e-02  1.1994e-02  4.6573e-03  0:02:40 1623
   378  2.4072e-02  1.3440e-02  8.6534e-02  2.1741e+02  2.4031e-02  1.1957e-02  4.6491e-03  0:02:08 1622
   379  2.4901e-02  1.3356e-02  8.6601e-02  2.1850e+02  2.4860e-02  1.1968e-02  4.6445e-03  0:01:42 1621
   380  2.5824e-02  1.3248e-02  8.6695e-02  2.2116e+02  2.5783e-02  1.1993e-02  4.6305e-03  0:01:22 1620
   381  2.6809e-02  1.3125e-02  8.6775e-02  2.2743e+02  2.6768e-02  1.1950e-02  4.6236e-03  0:01:05 1619
   382  2.7764e-02  1.3002e-02  8.6877e-02  2.3475e+02  2.7723e-02  1.1929e-02  4.6056e-03  0:06:16 1618
   383  2.8619e-02  1.2888e-02  8.7027e-02  2.4135e+02  2.8577e-02  1.1916e-02  4.5753e-03  0:05:00 1617
   384  2.9428e-02  1.2759e-02  8.7194e-02  2.4622e+02  2.9386e-02  1.1857e-02  4.5570e-03  0:04:00 1616
   385  3.0204e-02  1.2662e-02  8.7380e-02  2.4968e+02  3.0162e-02  1.1806e-02  4.5410e-03  0:03:12 1615

  iter  continuity  x-velocity  y-velocity  z-velocity      energy           k       omega     time/iter
   386  3.0939e-02  1.2608e-02  8.7585e-02  2.5344e+02  3.0896e-02  1.1806e-02  4.5294e-03  0:02:34 1614
   387  3.1804e-02  1.2588e-02  8.7835e-02  2.5842e+02  3.1761e-02  1.1827e-02  4.5313e-03  0:02:03 1613
   388  3.2776e-02  1.2618e-02  8.8120e-02  2.6332e+02  3.2731e-02  1.1813e-02  4.5144e-03  0:01:38 1612
   389  3.3778e-02  1.2659e-02  8.8418e-02  2.6983e+02  3.3732e-02  1.1786e-02  4.4840e-03  0:01:18 1611
   390  3.4782e-02  1.2672e-02  8.8719e-02  2.7676e+02  3.4735e-02  1.1739e-02  4.4578e-03  0:06:25 1610
   391  3.5621e-02  1.2683e-02  8.9005e-02  2.8342e+02  3.5573e-02  1.1708e-02  4.4307e-03  0:05:08 1609
   392  3.6393e-02  1.2706e-02  8.9295e-02  2.8805e+02  3.6344e-02  1.1663e-02  4.3823e-03  0:04:06 1608
   393  3.6918e-02  1.2722e-02  8.9647e-02  2.8869e+02  3.6868e-02  1.1640e-02  4.3386e-03  0:03:17 1607
   394  3.7331e-02  1.2733e-02  9.0047e-02  2.8925e+02  3.7281e-02  1.1640e-02  4.3046e-03  0:02:37 1606
   395  3.7521e-02  1.2784e-02  9.0473e-02  2.9190e+02  3.7470e-02  1.1628e-02  4.3007e-03  0:02:06 1605
   396  3.7402e-02  1.2859e-02  9.0923e-02  2.9736e+02  3.7350e-02  1.1600e-02  4.3015e-03  0:01:40 1604

  iter  continuity  x-velocity  y-velocity  z-velocity      energy           k       omega     time/iter
   397  3.7081e-02  1.2927e-02  9.1408e-02  3.0442e+02  3.7029e-02  1.1595e-02  4.2804e-03  0:01:20 1603
   398  3.6631e-02  1.2978e-02  9.1913e-02  3.1212e+02  3.6579e-02  1.1570e-02  4.2435e-03  0:06:25 1602
   399  3.6081e-02  1.3006e-02  9.2416e-02  3.1814e+02  3.6029e-02  1.1567e-02  4.2086e-03  0:05:08 1601
   400  3.5405e-02  1.3036e-02  9.2936e-02  3.2365e+02  3.5354e-02  1.1551e-02  4.1797e-03  0:04:06 1600
   401  3.4515e-02  1.3068e-02  9.3431e-02  3.2941e+02  3.4464e-02  1.1534e-02  4.1490e-03  0:03:17 1599
   402  3.3473e-02  1.3114e-02  9.3928e-02  3.3332e+02  3.3424e-02  1.1510e-02  4.1328e-03  0:02:37 1598
   403  3.2326e-02  1.3137e-02  9.4441e-02  3.3498e+02  3.2278e-02  1.1493e-02  4.1257e-03  0:02:06 1597
   404  3.1075e-02  1.3202e-02  9.4908e-02  3.3717e+02  3.1028e-02  1.1494e-02  4.1088e-03  0:01:40 1596
   405  2.9810e-02  1.3250e-02  9.5317e-02  3.4162e+02  2.9764e-02  1.1479e-02  4.0953e-03  0:01:20 1595
   406  2.8174e-02  1.3275e-02  9.5673e-02  3.4631e+02  2.8131e-02  1.1457e-02  4.0802e-03  0:01:04 1594
   407  2.6498e-02  1.3299e-02  9.5934e-02  3.5110e+02  2.6456e-02  1.1470e-02  4.0662e-03  0:06:10 1593

  iter  continuity  x-velocity  y-velocity  z-velocity      energy           k       omega     time/iter
   408  2.5181e-02  1.3301e-02  9.6104e-02  3.5438e+02  2.5141e-02  1.1508e-02  4.0592e-03  0:04:56 1592
   409  2.4292e-02  1.3304e-02  9.6173e-02  3.5705e+02  2.4253e-02  1.1508e-02  4.0606e-03  0:03:56 1591
   410  2.3726e-02  1.3312e-02  9.6133e-02  3.5853e+02  2.3687e-02  1.1483e-02  4.0636e-03  0:03:09 1590
   411  2.3285e-02  1.3337e-02  9.6017e-02  3.5937e+02  2.3247e-02  1.1470e-02  4.0775e-03  0:02:31 1589
   412  2.2739e-02  1.3341e-02  9.5867e-02  3.5843e+02  2.2702e-02  1.1441e-02  4.0817e-03  0:02:01 1588
   413  2.2131e-02  1.3337e-02  9.5664e-02  3.5644e+02  2.2095e-02  1.1412e-02  4.0919e-03  0:01:37 1587
   414  2.1436e-02  1.3320e-02  9.5379e-02  3.5323e+02  2.1401e-02  1.1412e-02  4.0983e-03  0:01:17 1586
   415  2.0702e-02  1.3319e-02  9.4998e-02  3.5100e+02  2.0668e-02  1.1427e-02  4.1095e-03  0:06:19 1585
   416  2.0158e-02  1.3294e-02  9.4526e-02  3.5023e+02  2.0124e-02  1.1402e-02  4.1104e-03  0:05:03 1584
   417  1.9879e-02  1.3238e-02  9.4035e-02  3.4633e+02  1.9844e-02  1.1404e-02  4.1066e-03  0:04:02 1583
   418  1.9855e-02  1.3172e-02  9.3484e-02  3.4145e+02  1.9821e-02  1.1424e-02  4.1181e-03  0:03:14 1582

  iter  continuity  x-velocity  y-velocity  z-velocity      energy           k       omega     time/iter
   419  1.9871e-02  1.3068e-02  9.2884e-02  3.3660e+02  1.9836e-02  1.1409e-02  4.1347e-03  0:02:35 1581
   420  1.9810e-02  1.2970e-02  9.2277e-02  3.3221e+02  1.9775e-02  1.1413e-02  4.1282e-03  0:02:04 1580
   421  1.9811e-02  1.2877e-02  9.1724e-02  3.2772e+02  1.9776e-02  1.1400e-02  4.1207e-03  0:01:39 1579
   422  1.9771e-02  1.2804e-02  9.1239e-02  3.2215e+02  1.9737e-02  1.1384e-02  4.1370e-03  0:01:19 1578
   423  1.9879e-02  1.2737e-02  9.0815e-02  3.1697e+02  1.9844e-02  1.1378e-02  4.1559e-03  0:06:19 1577
   424  2.0159e-02  1.2659e-02  9.0370e-02  3.1791e+02  2.0125e-02  1.1360e-02  4.1720e-03  0:05:03 1576
   425  2.0432e-02  1.2569e-02  8.9868e-02  3.1939e+02  2.0397e-02  1.1360e-02  4.1618e-03  0:04:02 1575
   426  2.0670e-02  1.2467e-02  8.9346e-02  3.1959e+02  2.0635e-02  1.1354e-02  4.1601e-03  0:03:13 1574
   427  2.0952e-02  1.2349e-02  8.8825e-02  3.2275e+02  2.0916e-02  1.1366e-02  4.1674e-03  0:02:35 1573
   428  2.1228e-02  1.2203e-02  8.8343e-02  3.2706e+02  2.1191e-02  1.1371e-02  4.1855e-03  0:02:04 1572
   429  2.1439e-02  1.2065e-02  8.7908e-02  3.3326e+02  2.1401e-02  1.1387e-02  4.1776e-03  0:01:39 1571

  iter  continuity  x-velocity  y-velocity  z-velocity      energy           k       omega     time/iter
   430  2.1755e-02  1.1966e-02  8.7482e-02  3.4014e+02  2.1716e-02  1.1379e-02  4.1616e-03  0:01:19 1570
   431  2.2112e-02  1.1903e-02  8.7092e-02  3.4765e+02  2.2073e-02  1.1341e-02  4.1550e-03  0:01:03 1569
   432  2.2426e-02  1.1877e-02  8.6609e-02  3.5758e+02  2.2387e-02  1.1341e-02  4.1412e-03  0:06:04 1568
   433  2.2916e-02  1.1875e-02  8.6193e-02  3.6549e+02  2.2876e-02  1.1348e-02  4.1276e-03  0:04:51 1567
   434  2.3469e-02  1.1876e-02  8.5781e-02  3.7154e+02  2.3428e-02  1.1366e-02  4.1389e-03  0:03:53 1566
   435  2.4047e-02  1.1881e-02  8.5404e-02  3.8003e+02  2.4005e-02  1.1378e-02  4.1469e-03  0:03:06 1565
   436  2.4477e-02  1.1849e-02  8.4960e-02  3.8904e+02  2.4435e-02  1.1412e-02  4.1465e-03  0:02:29 1564
   437  2.4895e-02  1.1835e-02  8.4538e-02  3.9420e+02  2.4853e-02  1.1437e-02  4.1455e-03  0:01:59 1563
   438  2.5279e-02  1.1798e-02  8.4199e-02  4.0664e+02  2.5237e-02  1.1461e-02  4.1349e-03  0:06:47 1562
   439  2.5797e-02  1.1754e-02  8.3864e-02  4.1436e+02  2.5753e-02  1.1477e-02  4.1147e-03  0:05:26 1561
   440  2.6286e-02  1.1735e-02  8.3561e-02  4.2536e+02  2.6242e-02  1.1488e-02  4.0915e-03  0:04:20 1560

  iter  continuity  x-velocity  y-velocity  z-velocity      energy           k       omega     time/iter
   441  2.6628e-02  1.1720e-02  8.3249e-02  4.3340e+02  2.6583e-02  1.1508e-02  4.0629e-03  0:03:28 1559
   442  2.6889e-02  1.1726e-02  8.2862e-02  4.4035e+02  2.6844e-02  1.1535e-02  4.0394e-03  0:02:46 1558
   443  2.7213e-02  1.1755e-02  8.2454e-02  4.4509e+02  2.7168e-02  1.1574e-02  4.0280e-03  0:02:13 1557
   444  2.7566e-02  1.1771e-02  8.2156e-02  4.4951e+02  2.7521e-02  1.1607e-02  4.0192e-03  0:01:46 1556
   445  2.7891e-02  1.1780e-02  8.1933e-02  4.5576e+02  2.7845e-02  1.1644e-02  4.0248e-03  0:01:25 1555
   446  2.8130e-02  1.1798e-02  8.1742e-02  4.6109e+02  2.8084e-02  1.1662e-02  4.0277e-03  0:01:08 1554
   447  2.8208e-02  1.1829e-02  8.1578e-02  4.6813e+02  2.8161e-02  1.1682e-02  4.0171e-03  0:06:05 1553
   448  2.8094e-02  1.1855e-02  8.1458e-02  4.7183e+02  2.8048e-02  1.1703e-02  4.0018e-03  0:04:52 1552
   449  2.7871e-02  1.1842e-02  8.1376e-02  4.7464e+02  2.7825e-02  1.1742e-02  3.9862e-03  0:03:53 1551
   450  2.7610e-02  1.1804e-02  8.1278e-02  4.7530e+02  2.7565e-02  1.1768e-02  3.9814e-03  0:03:07 1550
   451  2.7334e-02  1.1749e-02  8.1248e-02  4.7557e+02  2.7290e-02  1.1787e-02  3.9832e-03  0:02:29 1549

  iter  continuity  x-velocity  y-velocity  z-velocity      energy           k       omega     time/iter
   452  2.7042e-02  1.1709e-02  8.1297e-02  4.7670e+02  2.6998e-02  1.1799e-02  3.9929e-03  0:01:59 1548
   453  2.6677e-02  1.1669e-02  8.1373e-02  4.7932e+02  2.6633e-02  1.1813e-02  4.0008e-03  0:01:35 1547
   454  2.6216e-02  1.1655e-02  8.1499e-02  4.8093e+02  2.6173e-02  1.1827e-02  3.9964e-03  0:01:16 1546
   455  2.5622e-02  1.1680e-02  8.1646e-02  4.7975e+02  2.5579e-02  1.1828e-02  3.9878e-03  0:06:10 1545
   456  2.4870e-02  1.1714e-02  8.1800e-02  4.7669e+02  2.4828e-02  1.1824e-02  3.9708e-03  0:04:56 1544
   457  2.3962e-02  1.1727e-02  8.1972e-02  4.7561e+02  2.3921e-02  1.1832e-02  3.9681e-03  0:03:56 1543
   458  2.3055e-02  1.1754e-02  8.2149e-02  4.7238e+02  2.3016e-02  1.1843e-02  3.9792e-03  0:03:09 1542
   459  2.2135e-02  1.1802e-02  8.2301e-02  4.6560e+02  2.2097e-02  1.1845e-02  4.0052e-03  0:02:31 1541
   460  2.1223e-02  1.1843e-02  8.2410e-02  4.5778e+02  2.1186e-02  1.1836e-02  4.0215e-03  0:02:01 1540
   461  2.0337e-02  1.1858e-02  8.2480e-02  4.5096e+02  2.0301e-02  1.1829e-02  4.0262e-03  0:01:37 1539
   462  1.9516e-02  1.1864e-02  8.2548e-02  4.4546e+02  1.9479e-02  1.1818e-02  4.0298e-03  0:01:17 1538

  iter  continuity  x-velocity  y-velocity  z-velocity      energy           k       omega     time/iter
   463  1.8752e-02  1.1876e-02  8.2571e-02  4.4084e+02  1.8716e-02  1.1792e-02  4.0272e-03  0:06:09 1537
   464  1.8095e-02  1.1907e-02  8.2543e-02  4.3626e+02  1.8059e-02  1.1772e-02  4.0172e-03  0:04:55 1536
   465  1.7475e-02  1.1951e-02  8.2506e-02  4.3336e+02  1.7439e-02  1.1767e-02  4.0138e-03  0:03:56 1535
   466  1.6823e-02  1.1976e-02  8.2442e-02  4.3436e+02  1.6787e-02  1.1754e-02  4.0038e-03  0:03:09 1534
   467  1.6244e-02  1.1978e-02  8.2326e-02  4.3524e+02  1.6208e-02  1.1737e-02  3.9943e-03  0:02:31 1533
   468  1.5880e-02  1.1997e-02  8.2180e-02  4.3371e+02  1.5844e-02  1.1719e-02  3.9915e-03  0:02:01 1532
   469  1.5613e-02  1.2050e-02  8.1963e-02  4.3025e+02  1.5577e-02  1.1668e-02  3.9871e-03  0:01:36 1531
   470  1.5527e-02  1.2113e-02  8.1682e-02  4.2771e+02  1.5492e-02  1.1605e-02  3.9853e-03  0:01:17 1530
   471  1.5602e-02  1.2178e-02  8.1316e-02  4.2427e+02  1.5567e-02  1.1541e-02  3.9909e-03  0:01:02 1529
   472  1.5823e-02  1.2228e-02  8.0877e-02  4.2186e+02  1.5788e-02  1.1477e-02  4.0141e-03  0:05:55 1528
   473  1.6122e-02  1.2254e-02  8.0397e-02  4.2042e+02  1.6087e-02  1.1433e-02  4.0412e-03  0:04:44 1527

  iter  continuity  x-velocity  y-velocity  z-velocity      energy           k       omega     time/iter
   474  1.6393e-02  1.2271e-02  7.9876e-02  4.2159e+02  1.6357e-02  1.1390e-02  4.0664e-03  0:03:47 1526
   475  1.6540e-02  1.2292e-02  7.9316e-02  4.2360e+02  1.6505e-02  1.1364e-02  4.0887e-03  0:03:01 1525
   476  1.6670e-02  1.2285e-02  7.8749e-02  4.2443e+02  1.6636e-02  1.1323e-02  4.0948e-03  0:02:25 1524
   477  1.6906e-02  1.2262e-02  7.8158e-02  4.2097e+02  1.6872e-02  1.1277e-02  4.0882e-03  0:01:56 1523
   478  1.7152e-02  1.2224e-02  7.7567e-02  4.1439e+02  1.7118e-02  1.1224e-02  4.0903e-03  0:01:33 1522
   479  1.7468e-02  1.2171e-02  7.7006e-02  4.0753e+02  1.7435e-02  1.1157e-02  4.0817e-03  0:01:14 1521
   480  1.7877e-02  1.2146e-02  7.6478e-02  4.0165e+02  1.7843e-02  1.1082e-02  4.0577e-03  0:06:03 1520
   481  1.8337e-02  1.2136e-02  7.5971e-02  3.9805e+02  1.8303e-02  1.1006e-02  4.0652e-03  0:04:50 1519
   482  1.8814e-02  1.2125e-02  7.5466e-02  3.9414e+02  1.8780e-02  1.0935e-02  4.0830e-03  0:03:52 1518
   483  1.9251e-02  1.2109e-02  7.4966e-02  3.9113e+02  1.9217e-02  1.0864e-02  4.0869e-03  0:03:06 1517
   484  1.9581e-02  1.2077e-02  7.4459e-02  3.8785e+02  1.9547e-02  1.0800e-02  4.0923e-03  0:02:28 1516

  iter  continuity  x-velocity  y-velocity  z-velocity      energy           k       omega     time/iter
   485  1.9844e-02  1.2014e-02  7.3977e-02  3.8487e+02  1.9811e-02  1.0751e-02  4.1077e-03  0:01:59 1515
   486  2.0189e-02  1.1948e-02  7.3531e-02  3.7770e+02  2.0155e-02  1.0704e-02  4.1103e-03  0:01:35 1514
   487  2.0505e-02  1.1884e-02  7.3098e-02  3.6871e+02  2.0472e-02  1.0656e-02  4.1100e-03  0:01:16 1513
   488  2.0808e-02  1.1776e-02  7.2695e-02  3.6040e+02  2.0775e-02  1.0619e-02  4.1004e-03  0:06:03 1512
   489  2.1188e-02  1.1646e-02  7.2340e-02  3.5333e+02  2.1154e-02  1.0586e-02  4.0845e-03  0:04:50 1511
   490  2.1658e-02  1.1512e-02  7.2047e-02  3.4854e+02  2.1624e-02  1.0539e-02  4.0550e-03  0:03:52 1510
   491  2.2188e-02  1.1392e-02  7.1833e-02  3.4570e+02  2.2153e-02  1.0484e-02  4.0389e-03  0:03:05 1509
   492  2.2738e-02  1.1322e-02  7.1716e-02  3.4526e+02  2.2702e-02  1.0438e-02  4.0258e-03  0:02:28 1508
   493  2.3273e-02  1.1293e-02  7.1681e-02  3.4573e+02  2.3237e-02  1.0366e-02  4.0142e-03  0:01:59 1507
   494  2.3761e-02  1.1246e-02  7.1692e-02  3.4609e+02  2.3725e-02  1.0302e-02  4.0092e-03  0:01:35 1506
   495  2.4317e-02  1.1169e-02  7.1739e-02  3.4536e+02  2.4280e-02  1.0257e-02  3.9995e-03  0:01:16 1505

  iter  continuity  x-velocity  y-velocity  z-velocity      energy           k       omega     time/iter
   496  2.4892e-02  1.1095e-02  7.1812e-02  3.4240e+02  2.4855e-02  1.0230e-02  3.9903e-03  0:06:01 1504
   497  2.5483e-02  1.1019e-02  7.1910e-02  3.4039e+02  2.5446e-02  1.0203e-02  3.9885e-03  0:04:49 1503
   498  2.6086e-02  1.0951e-02  7.2037e-02  3.3878e+02  2.6048e-02  1.0174e-02  3.9821e-03  0:03:51 1502
   499  2.6708e-02  1.0908e-02  7.2196e-02  3.3676e+02  2.6669e-02  1.0165e-02  3.9554e-03  0:03:05 1501
   500  2.7319e-02  1.0810e-02  7.2397e-02  3.3602e+02  2.7279e-02  1.0149e-02  3.9224e-03  0:02:28 1500
   501  2.7910e-02  1.0691e-02  7.2655e-02  3.3649e+02  2.7870e-02  1.0155e-02  3.8953e-03  0:01:58 1499
   502  2.8477e-02  1.0650e-02  7.2960e-02  3.3780e+02  2.8435e-02  1.0168e-02  3.8732e-03  0:01:34 1498
   503  2.9012e-02  1.0732e-02  7.3328e-02  3.3880e+02  2.8970e-02  1.0173e-02  3.8590e-03  0:01:15 1497
   504  2.9477e-02  1.0821e-02  7.3724e-02  3.3969e+02  2.9435e-02  1.0168e-02  3.8466e-03  0:01:00 1496
   505  2.9943e-02  1.0908e-02  7.4177e-02  3.3876e+02  2.9901e-02  1.0165e-02  3.8279e-03  0:05:47 1495
   506  3.0393e-02  1.1008e-02  7.4662e-02  3.3769e+02  3.0351e-02  1.0166e-02  3.7965e-03  0:04:38 1494

  iter  continuity  x-velocity  y-velocity  z-velocity      energy           k       omega     time/iter
   507  3.0861e-02  1.1083e-02  7.5168e-02  3.3693e+02  3.0817e-02  1.0162e-02  3.7743e-03  0:03:42 1493
   508  3.1210e-02  1.1121e-02  7.5693e-02  3.3497e+02  3.1166e-02  1.0166e-02  3.7569e-03  0:02:57 1492
   509  3.1536e-02  1.1135e-02  7.6232e-02  3.3302e+02  3.1491e-02  1.0178e-02  3.7344e-03  0:02:22 1491
   510  3.1767e-02  1.1133e-02  7.6792e-02  3.3225e+02  3.1721e-02  1.0190e-02  3.7053e-03  0:01:53 1490
   511  3.1891e-02  1.1125e-02  7.7375e-02  3.3049e+02  3.1846e-02  1.0209e-02  3.6833e-03  0:01:31 1489
   512  3.1823e-02  1.1122e-02  7.7974e-02  3.2955e+02  3.1777e-02  1.0250e-02  3.6727e-03  0:01:12 1488
   513  3.1617e-02  1.1130e-02  7.8559e-02  3.2849e+02  3.1571e-02  1.0293e-02  3.6579e-03  0:05:55 1487
   514  3.1205e-02  1.1139e-02  7.9127e-02  3.2591e+02  3.1159e-02  1.0337e-02  3.6591e-03  0:04:44 1486
   515  3.0699e-02  1.1185e-02  7.9697e-02  3.2403e+02  3.0654e-02  1.0366e-02  3.6512e-03  0:03:47 1485
   516  2.9990e-02  1.1291e-02  8.0237e-02  3.2255e+02  2.9946e-02  1.0387e-02  3.6407e-03  0:03:02 1484
   517  2.9118e-02  1.1392e-02  8.0739e-02  3.2113e+02  2.9074e-02  1.0412e-02  3.6302e-03  0:02:25 1483

  iter  continuity  x-velocity  y-velocity  z-velocity      energy           k       omega     time/iter
   518  2.8106e-02  1.1467e-02  8.1203e-02  3.1985e+02  2.8063e-02  1.0431e-02  3.6150e-03  0:01:56 1482
   519  2.6933e-02  1.1496e-02  8.1651e-02  3.1877e+02  2.6892e-02  1.0437e-02  3.6020e-03  0:01:33 1481
   520  2.5701e-02  1.1485e-02  8.2032e-02  3.1806e+02  2.5661e-02  1.0449e-02  3.5935e-03  0:01:14 1480
   521  2.4331e-02  1.1460e-02  8.2335e-02  3.1780e+02  2.4292e-02  1.0460e-02  3.5892e-03  0:05:55 1479
   522  2.2906e-02  1.1426e-02  8.2548e-02  3.1877e+02  2.2868e-02  1.0471e-02  3.5960e-03  0:04:44 1478
   523  2.1473e-02  1.1381e-02  8.2662e-02  3.2015e+02  2.1437e-02  1.0488e-02  3.6079e-03  0:03:47 1477
   524  2.0196e-02  1.1312e-02  8.2663e-02  3.1919e+02  2.0161e-02  1.0516e-02  3.6294e-03  0:03:01 1476
   525  1.8982e-02  1.1268e-02  8.2534e-02  3.1797e+02  1.8948e-02  1.0542e-02  3.6509e-03  0:02:25 1475
   526  1.7866e-02  1.1232e-02  8.2327e-02  3.1731e+02  1.7834e-02  1.0568e-02  3.6694e-03  0:01:56 1474
   527  1.7014e-02  1.1210e-02  8.2046e-02  3.1731e+02  1.6983e-02  1.0573e-02  3.6839e-03  0:01:33 1473
   528  1.6556e-02  1.1199e-02  8.1681e-02  3.1686e+02  1.6526e-02  1.0591e-02  3.7068e-03  0:01:14 1472

  iter  continuity  x-velocity  y-velocity  z-velocity      energy           k       omega     time/iter
   529  1.6568e-02  1.1192e-02  8.1248e-02  3.1431e+02  1.6539e-02  1.0598e-02  3.7260e-03  0:05:53 1471
   530  1.6816e-02  1.1188e-02  8.0784e-02  3.1111e+02  1.6786e-02  1.0590e-02  3.7566e-03  0:04:43 1470
   531  1.7180e-02  1.1155e-02  8.0256e-02  3.0795e+02  1.7150e-02  1.0599e-02  3.7877e-03  0:03:46 1469
   532  1.7711e-02  1.1107e-02  7.9716e-02  3.0618e+02  1.7681e-02  1.0597e-02  3.8223e-03  0:03:01 1468
   533  1.8350e-02  1.1026e-02  7.9223e-02  3.0224e+02  1.8320e-02  1.0603e-02  3.8545e-03  0:02:24 1467
   534  1.9233e-02  1.0965e-02  7.8756e-02  2.9837e+02  1.9203e-02  1.0620e-02  3.8910e-03  0:01:55 1466
   535  2.0139e-02  1.0917e-02  7.8276e-02  2.9841e+02  2.0109e-02  1.0641e-02  3.9212e-03  0:01:32 1465
   536  2.0959e-02  1.0876e-02  7.7720e-02  3.0131e+02  2.0929e-02  1.0630e-02  3.9479e-03  0:01:14 1464
   537  2.1758e-02  1.0833e-02  7.7146e-02  3.0266e+02  2.1726e-02  1.0628e-02  3.9626e-03  0:00:59 1463
   538  2.2621e-02  1.0799e-02  7.6572e-02  3.0838e+02  2.2589e-02  1.0623e-02  3.9985e-03  0:05:40 1462
   539  2.3458e-02  1.0782e-02  7.6026e-02  3.1457e+02  2.3425e-02  1.0613e-02  4.0258e-03  0:04:31 1461

  iter  continuity  x-velocity  y-velocity  z-velocity      energy           k       omega     time/iter
   540  2.4314e-02  1.0767e-02  7.5503e-02  3.2301e+02  2.4281e-02  1.0597e-02  4.0435e-03  0:03:37 1460
   541  2.5150e-02  1.0759e-02  7.5034e-02  3.3370e+02  2.5115e-02  1.0584e-02  4.0685e-03  0:02:53 1459
   542  2.5996e-02  1.0771e-02  7.4641e-02  3.4417e+02  2.5961e-02  1.0582e-02  4.1014e-03  0:02:19 1458
   543  2.6801e-02  1.0824e-02  7.4269e-02  3.5491e+02  2.6765e-02  1.0567e-02  4.1207e-03  0:01:51 1457
   544  2.7513e-02  1.0877e-02  7.3848e-02  3.6432e+02  2.7476e-02  1.0573e-02  4.1494e-03  0:01:29 1456
   545  2.8254e-02  1.0951e-02  7.3414e-02  3.7699e+02  2.8218e-02  1.0583e-02  4.1557e-03  0:01:11 1455
   546  2.8928e-02  1.1041e-02  7.3006e-02  3.8314e+02  2.8891e-02  1.0599e-02  4.1542e-03  0:05:47 1454
   547  2.9530e-02  1.1132e-02  7.2566e-02  3.9105e+02  2.9492e-02  1.0604e-02  4.1609e-03  0:04:38 1453
   548  3.0119e-02  1.1221e-02  7.2245e-02  3.9971e+02  3.0081e-02  1.0617e-02  4.1612e-03  0:03:42 1452
   549  3.0693e-02  1.1311e-02  7.1972e-02  4.0937e+02  3.0654e-02  1.0646e-02  4.1645e-03  0:02:58 1451
   550  3.1109e-02  1.1359e-02  7.1667e-02  4.1301e+02  3.1070e-02  1.0698e-02  4.1685e-03  0:02:22 1450

  iter  continuity  x-velocity  y-velocity  z-velocity      energy           k       omega     time/iter
   551  3.1509e-02  1.1414e-02  7.1514e-02  4.1543e+02  3.1470e-02  1.0726e-02  4.1711e-03  0:01:53 1449
   552  3.1865e-02  1.1504e-02  7.1397e-02  4.1840e+02  3.1826e-02  1.0740e-02  4.1854e-03  0:01:31 1448
   553  3.2147e-02  1.1602e-02  7.1294e-02  4.2321e+02  3.2107e-02  1.0737e-02  4.1861e-03  0:01:13 1447
   554  3.2334e-02  1.1711e-02  7.1237e-02  4.2577e+02  3.2293e-02  1.0748e-02  4.1889e-03  0:05:47 1446
   555  3.2434e-02  1.1826e-02  7.1262e-02  4.2964e+02  3.2393e-02  1.0742e-02  4.1975e-03  0:04:38 1445
   556  3.2338e-02  1.1943e-02  7.1287e-02  4.2922e+02  3.2298e-02  1.0781e-02  4.2027e-03  0:03:42 1444
   557  3.2100e-02  1.2029e-02  7.1368e-02  4.2701e+02  3.2060e-02  1.0811e-02  4.2112e-03  0:02:57 1443
   558  3.1807e-02  1.2090e-02  7.1536e-02  4.2379e+02  3.1767e-02  1.0811e-02  4.1996e-03  0:02:22 1442
   559  3.1458e-02  1.2116e-02  7.1844e-02  4.2044e+02  3.1418e-02  1.0822e-02  4.1855e-03  0:01:53 1441
   560  3.1006e-02  1.2119e-02  7.2338e-02  4.1961e+02  3.0966e-02  1.0836e-02  4.1826e-03  0:01:31 1440
   561  3.0451e-02  1.2127e-02  7.2919e-02  4.1843e+02  3.0412e-02  1.0867e-02  4.1990e-03  0:01:12 1439

  iter  continuity  x-velocity  y-velocity  z-velocity      energy           k       omega     time/iter
   562  2.9757e-02  1.2131e-02  7.3566e-02  4.1425e+02  2.9718e-02  1.0884e-02  4.2016e-03  0:05:46 1438
   563  2.8910e-02  1.2142e-02  7.4201e-02  4.0825e+02  2.8872e-02  1.0884e-02  4.1854e-03  0:04:36 1437
   564  2.7924e-02  1.2156e-02  7.4835e-02  4.0162e+02  2.7887e-02  1.0859e-02  4.1793e-03  0:03:41 1436
   565  2.6856e-02  1.2184e-02  7.5455e-02  3.9513e+02  2.6820e-02  1.0848e-02  4.1750e-03  0:02:57 1435
   566  2.5743e-02  1.2248e-02  7.6047e-02  3.8853e+02  2.5707e-02  1.0843e-02  4.1772e-03  0:02:21 1434
   567  2.4595e-02  1.2335e-02  7.6560e-02  3.8007e+02  2.4560e-02  1.0826e-02  4.1801e-03  0:01:53 1433
   568  2.3435e-02  1.2415e-02  7.7058e-02  3.7162e+02  2.3401e-02  1.0774e-02  4.1830e-03  0:01:30 1432
   569  2.2268e-02  1.2483e-02  7.7491e-02  3.6279e+02  2.2234e-02  1.0740e-02  4.1847e-03  0:01:12 1431
   570  2.1110e-02  1.2527e-02  7.7881e-02  3.5274e+02  2.1075e-02  1.0714e-02  4.1966e-03  0:00:58 1430
   571  2.0028e-02  1.2549e-02  7.8260e-02  3.4162e+02  1.9993e-02  1.0687e-02  4.1957e-03  0:05:32 1429
   572  1.9046e-02  1.2579e-02  7.8628e-02  3.3157e+02  1.9010e-02  1.0679e-02  4.1851e-03  0:04:25 1428

  iter  continuity  x-velocity  y-velocity  z-velocity      energy           k       omega     time/iter
   573  1.8120e-02  1.2614e-02  7.8942e-02  3.2444e+02  1.8084e-02  1.0653e-02  4.1783e-03  0:03:32 1427
   574  1.7279e-02  1.2598e-02  7.9205e-02  3.1924e+02  1.7242e-02  1.0620e-02  4.1661e-03  0:02:50 1426
   575  1.6599e-02  1.2524e-02  7.9345e-02  3.1510e+02  1.6561e-02  1.0616e-02  4.1481e-03  0:02:16 1425
   576  1.6126e-02  1.2487e-02  7.9323e-02  3.0913e+02  1.6089e-02  1.0580e-02  4.1311e-03  0:01:48 1424
   577  1.5804e-02  1.2488e-02  7.9178e-02  3.0161e+02  1.5767e-02  1.0526e-02  4.1298e-03  0:01:27 1423
   578  1.5623e-02  1.2514e-02  7.8905e-02  2.9450e+02  1.5585e-02  1.0488e-02  4.1403e-03  0:01:09 1422
   579  1.5625e-02  1.2558e-02  7.8569e-02  2.8716e+02  1.5588e-02  1.0428e-02  4.1488e-03  0:05:40 1421
   580  1.5799e-02  1.2595e-02  7.8201e-02  2.8083e+02  1.5762e-02  1.0359e-02  4.1575e-03  0:04:31 1420
   581  1.6120e-02  1.2630e-02  7.7811e-02  2.7622e+02  1.6082e-02  1.0308e-02  4.1710e-03  0:03:37 1419
   582  1.6539e-02  1.2682e-02  7.7372e-02  2.7301e+02  1.6502e-02  1.0274e-02  4.1906e-03  0:02:53 1418
   583  1.6935e-02  1.2716e-02  7.6896e-02  2.7261e+02  1.6898e-02  1.0240e-02  4.2059e-03  0:02:19 1417

  iter  continuity  x-velocity  y-velocity  z-velocity      energy           k       omega     time/iter
   584  1.7291e-02  1.2708e-02  7.6378e-02  2.7351e+02  1.7256e-02  1.0199e-02  4.2159e-03  0:01:51 1416
   585  1.7771e-02  1.2618e-02  7.5847e-02  2.6913e+02  1.7736e-02  1.0138e-02  4.2304e-03  0:01:29 1415
   586  1.8315e-02  1.2496e-02  7.5299e-02  2.6298e+02  1.8282e-02  1.0083e-02  4.2328e-03  0:01:11 1414
   587  1.8888e-02  1.2415e-02  7.4777e-02  2.5459e+02  1.8856e-02  1.0037e-02  4.2257e-03  0:05:39 1413
   588  1.9483e-02  1.2323e-02  7.4261e-02  2.4656e+02  1.9452e-02  1.0005e-02  4.2272e-03  0:04:31 1412
   589  2.0099e-02  1.2218e-02  7.3714e-02  2.3865e+02  2.0069e-02  9.9602e-03  4.2231e-03  0:03:37 1411
   590  2.0735e-02  1.2107e-02  7.3166e-02  2.3154e+02  2.0705e-02  9.9186e-03  4.2102e-03  0:02:53 1410
   591  2.1367e-02  1.2006e-02  7.2618e-02  2.2649e+02  2.1338e-02  9.8635e-03  4.2187e-03  0:02:19 1409
   592  2.1949e-02  1.1933e-02  7.2100e-02  2.2301e+02  2.1921e-02  9.8053e-03  4.2343e-03  0:01:51 1408
   593  2.2426e-02  1.1849e-02  7.1609e-02  2.2162e+02  2.2398e-02  9.7515e-03  4.2365e-03  0:01:29 1407
   594  2.2967e-02  1.1760e-02  7.1161e-02  2.1638e+02  2.2940e-02  9.7075e-03  4.2270e-03  0:01:11 1406

  iter  continuity  x-velocity  y-velocity  z-velocity      energy           k       omega     time/iter
   595  2.3560e-02  1.1679e-02  7.0764e-02  2.1199e+02  2.3533e-02  9.6627e-03  4.2077e-03  0:05:38 1405
   596  2.4234e-02  1.1542e-02  7.0467e-02  2.0770e+02  2.4207e-02  9.6181e-03  4.1777e-03  0:04:30 1404
   597  2.5007e-02  1.1361e-02  7.0278e-02  2.0538e+02  2.4980e-02  9.5626e-03  4.1380e-03  0:03:36 1403
   598  2.5894e-02  1.1206e-02  7.0136e-02  2.0374e+02  2.5868e-02  9.5152e-03  4.1145e-03  0:02:52 1402
   599  2.6905e-02  1.1059e-02  6.9997e-02  2.0305e+02  2.6879e-02  9.4765e-03  4.0761e-03  0:02:18 1401
   600  2.8004e-02  1.0919e-02  6.9844e-02  2.0369e+02  2.7977e-02  9.4349e-03  4.0467e-03  0:01:50 1400
   601  2.9076e-02  1.0787e-02  6.9717e-02  2.0681e+02  2.9049e-02  9.4026e-03  4.0255e-03  0:01:28 1399
   602  3.0079e-02  1.0652e-02  6.9624e-02  2.1051e+02  3.0052e-02  9.3708e-03  4.0125e-03  0:01:10 1398
   603  3.1255e-02  1.0513e-02  6.9571e-02  2.1370e+02  3.1228e-02  9.3174e-03  3.9984e-03  0:00:56 1397
   604  3.2436e-02  1.0407e-02  6.9567e-02  2.1455e+02  3.2409e-02  9.2798e-03  3.9708e-03  0:05:24 1396
   605  3.3615e-02  1.0315e-02  6.9643e-02  2.1401e+02  3.3588e-02  9.2465e-03  3.9356e-03  0:04:19 1395

  iter  continuity  x-velocity  y-velocity  z-velocity      energy           k       omega     time/iter
   606  3.4789e-02  1.0240e-02  6.9783e-02  2.1517e+02  3.4761e-02  9.2329e-03  3.8970e-03  0:03:27 1394
   607  3.5960e-02  1.0161e-02  6.9954e-02  2.1492e+02  3.5932e-02  9.2171e-03  3.8600e-03  0:02:46 1393
   608  3.7048e-02  1.0115e-02  7.0184e-02  2.1521e+02  3.7018e-02  9.2004e-03  3.8124e-03  0:02:12 1392
   609  3.7922e-02  1.0109e-02  7.0441e-02  2.1752e+02  3.7891e-02  9.1607e-03  3.7626e-03  0:01:46 1391
   610  3.8548e-02  1.0117e-02  7.0736e-02  2.2278e+02  3.8517e-02  9.1250e-03  3.7300e-03  0:01:25 1390
   611  3.8868e-02  1.0097e-02  7.1076e-02  2.2792e+02  3.8836e-02  9.0807e-03  3.6994e-03  0:01:08 1389
   612  3.8927e-02  1.0070e-02  7.1442e-02  2.3267e+02  3.8895e-02  9.0473e-03  3.6677e-03  0:05:32 1388
   613  3.8732e-02  1.0073e-02  7.1807e-02  2.3726e+02  3.8699e-02  9.0285e-03  3.6303e-03  0:04:25 1387
   614  3.8356e-02  1.0084e-02  7.2190e-02  2.4119e+02  3.8322e-02  9.0165e-03  3.5987e-03  0:03:32 1386
   615  3.7865e-02  1.0073e-02  7.2567e-02  2.4488e+02  3.7831e-02  9.0054e-03  3.5754e-03  0:02:49 1385
   616  3.7302e-02  1.0035e-02  7.2942e-02  2.4619e+02  3.7268e-02  8.9856e-03  3.5493e-03  0:02:15 1384

  iter  continuity  x-velocity  y-velocity  z-velocity      energy           k       omega     time/iter
   617  3.6748e-02  1.0028e-02  7.3324e-02  2.4688e+02  3.6713e-02  8.9684e-03  3.5158e-03  0:01:48 1383
   618  3.6186e-02  1.0085e-02  7.3723e-02  2.4710e+02  3.6151e-02  8.9512e-03  3.4861e-03  0:01:27 1382
   619  3.5621e-02  1.0169e-02  7.4135e-02  2.4868e+02  3.5585e-02  8.9290e-03  3.4594e-03  0:01:09 1381
   620  3.4897e-02  1.0249e-02  7.4568e-02  2.4721e+02  3.4862e-02  8.8966e-03  3.4350e-03  0:05:31 1380
   621  3.4079e-02  1.0287e-02  7.5042e-02  2.4492e+02  3.4044e-02  8.8878e-03  3.3995e-03  0:04:25 1379
   622  3.3198e-02  1.0338e-02  7.5542e-02  2.4141e+02  3.3164e-02  8.8851e-03  3.3619e-03  0:03:32 1378
   623  3.2188e-02  1.0380e-02  7.6055e-02  2.3674e+02  3.2155e-02  8.8674e-03  3.3286e-03  0:02:49 1377
   624  3.1130e-02  1.0411e-02  7.6543e-02  2.3116e+02  3.1098e-02  8.8372e-03  3.3027e-03  0:02:15 1376
   625  3.0113e-02  1.0419e-02  7.6989e-02  2.2532e+02  3.0081e-02  8.8157e-03  3.2893e-03  0:01:48 1375
   626  2.9112e-02  1.0419e-02  7.7367e-02  2.1828e+02  2.9080e-02  8.7947e-03  3.2797e-03  0:01:26 1374
[...]
  1838  1.8004e-02  1.0040e-02  7.2050e-02  3.9795e+01  1.7977e-02  4.5946e-03  2.2867e-03  0:00:10  162
  1839  1.8447e-02  9.9785e-03  7.1695e-02  3.8931e+01  1.8420e-02  4.5889e-03  2.3029e-03  0:00:08  161
  1840  1.8985e-02  9.9264e-03  7.1362e-02  3.8512e+01  1.8958e-02  4.5777e-03  2.3318e-03  0:00:06  160
  1841  1.9408e-02  9.8892e-03  7.0955e-02  3.8922e+01  1.9381e-02  4.5766e-03  2.3596e-03  0:00:37  159
  1842  1.9841e-02  9.8542e-03  7.0535e-02  3.9838e+01  1.9813e-02  4.5774e-03  2.3672e-03  0:00:29  158
  1843  2.0416e-02  9.8266e-03  7.0162e-02  3.9994e+01  2.0388e-02  4.5798e-03  2.3668e-03  0:00:23  157
  1844  2.0868e-02  9.7960e-03  6.9821e-02  4.0742e+01  2.0839e-02  4.5789e-03  2.3845e-03  0:00:18  156
  1845  2.1310e-02  9.7866e-03  6.9486e-02  4.1750e+01  2.1280e-02  4.5891e-03  2.3893e-03  0:00:15  155
  1846  2.1840e-02  9.7699e-03  6.9192e-02  4.2893e+01  2.1810e-02  4.5899e-03  2.4001e-03  0:00:12  154
  1847  2.2302e-02  9.7265e-03  6.8884e-02  4.4380e+01  2.2272e-02  4.5879e-03  2.4236e-03  0:00:09  153
  1848  2.2902e-02  9.7328e-03  6.8642e-02  4.5432e+01  2.2871e-02  4.5902e-03  2.4295e-03  0:00:07  152

  iter  continuity  x-velocity  y-velocity  z-velocity      energy           k       omega     time/iter
  1849  2.3557e-02  9.7840e-03  6.8352e-02  4.6512e+01  2.3526e-02  4.5860e-03  2.4370e-03  0:00:06  151
  1850  2.4199e-02  9.8669e-03  6.8105e-02  4.7908e+01  2.4167e-02  4.5961e-03  2.4546e-03  0:00:35  150
  1851  2.4781e-02  9.9381e-03  6.7790e-02  4.9666e+01  2.4749e-02  4.6022e-03  2.4618e-03  0:00:28  149
  1852  2.5377e-02  9.9883e-03  6.7395e-02  5.0439e+01  2.5345e-02  4.6111e-03  2.4600e-03  0:00:22  148
  1853  2.5879e-02  1.0073e-02  6.7163e-02  5.1734e+01  2.5846e-02  4.6191e-03  2.4555e-03  0:00:17  147
  1854  2.6474e-02  1.0123e-02  6.6886e-02  5.2965e+01  2.6441e-02  4.6298e-03  2.4445e-03  0:00:14  146
  1855  2.7124e-02  1.0194e-02  6.6694e-02  5.5042e+01  2.7089e-02  4.6279e-03  2.4450e-03  0:00:11  145
  1856  2.7618e-02  1.0236e-02  6.6569e-02  5.6155e+01  2.7583e-02  4.6401e-03  2.4435e-03  0:00:09  144
  1857  2.7969e-02  1.0270e-02  6.6334e-02  5.7146e+01  2.7934e-02  4.6622e-03  2.4405e-03  0:00:07  143
  1858  2.8375e-02  1.0357e-02  6.6165e-02  5.7731e+01  2.8340e-02  4.6945e-03  2.4401e-03  0:00:06  142
  1859  2.8796e-02  1.0454e-02  6.6055e-02  5.8169e+01  2.8760e-02  4.7195e-03  2.4437e-03  0:00:33  141

  iter  continuity  x-velocity  y-velocity  z-velocity      energy           k       omega     time/iter
  1860  2.9183e-02  1.0543e-02  6.5960e-02  5.9041e+01  2.9146e-02  4.7393e-03  2.4470e-03  0:00:26  140
  1861  2.9445e-02  1.0650e-02  6.5812e-02  5.9779e+01  2.9408e-02  4.7604e-03  2.4415e-03  0:00:21  139
  1862  2.9551e-02  1.0757e-02  6.5729e-02  6.0173e+01  2.9514e-02  4.7813e-03  2.4321e-03  0:00:16  138
  1863  2.9444e-02  1.0827e-02  6.5683e-02  6.0349e+01  2.9407e-02  4.7890e-03  2.4285e-03  0:00:13  137
  1864  2.9235e-02  1.0871e-02  6.5703e-02  5.9852e+01  2.9198e-02  4.8027e-03  2.4286e-03  0:00:10  136
  1865  2.9007e-02  1.0871e-02  6.5790e-02  5.9386e+01  2.8970e-02  4.8301e-03  2.4318e-03  0:00:08  135
  1866  2.8754e-02  1.0865e-02  6.6030e-02  5.9170e+01  2.8716e-02  4.8464e-03  2.4309e-03  0:00:06  134
  1867  2.8431e-02  1.0848e-02  6.6325e-02  5.9431e+01  2.8394e-02  4.8610e-03  2.4298e-03  0:00:32  133
  1868  2.8035e-02  1.0846e-02  6.6670e-02  5.9322e+01  2.7998e-02  4.8712e-03  2.4357e-03  0:00:25  132
  1869  2.7483e-02  1.0890e-02  6.7049e-02  5.8754e+01  2.7447e-02  4.8797e-03  2.4329e-03  0:00:20  131
  1870  2.6763e-02  1.0954e-02  6.7427e-02  5.8112e+01  2.6727e-02  4.8887e-03  2.4427e-03  0:00:16  130

  iter  continuity  x-velocity  y-velocity  z-velocity      energy           k       omega     time/iter
  1871  2.5881e-02  1.0996e-02  6.7808e-02  5.7265e+01  2.5846e-02  4.8925e-03  2.4408e-03  0:00:13  129
  1872  2.4893e-02  1.1048e-02  6.8167e-02  5.6494e+01  2.4860e-02  4.9085e-03  2.4398e-03  0:00:10  128
  1873  2.3866e-02  1.1111e-02  6.8481e-02  5.5267e+01  2.3832e-02  4.9065e-03  2.4459e-03  0:00:08  127
  1874  2.2784e-02  1.1165e-02  6.8783e-02  5.3989e+01  2.2751e-02  4.9007e-03  2.4547e-03  0:00:06  126
  1875  2.1696e-02  1.1192e-02  6.9055e-02  5.2681e+01  2.1663e-02  4.8877e-03  2.4615e-03  0:00:05  125
  1876  2.0598e-02  1.1217e-02  6.9333e-02  5.1477e+01  2.0566e-02  4.8797e-03  2.4626e-03  0:00:04  124
  1877  1.9565e-02  1.1244e-02  6.9602e-02  5.0293e+01  1.9533e-02  4.8635e-03  2.4641e-03  0:00:28  123
  1878  1.8602e-02  1.1287e-02  6.9888e-02  4.9226e+01  1.8569e-02  4.8598e-03  2.4730e-03  0:00:22  122
  1879  1.7697e-02  1.1323e-02  7.0172e-02  4.8518e+01  1.7664e-02  4.8543e-03  2.4724e-03  0:00:17  121
  1880  1.6821e-02  1.1326e-02  7.0431e-02  4.7988e+01  1.6787e-02  4.8676e-03  2.4694e-03  0:00:14  120
  1881  1.6082e-02  1.1284e-02  7.0572e-02  4.7824e+01  1.6048e-02  4.8798e-03  2.4718e-03  0:00:11  119

  iter  continuity  x-velocity  y-velocity  z-velocity      energy           k       omega     time/iter
  1882  1.5499e-02  1.1297e-02  7.0634e-02  4.7317e+01  1.5466e-02  4.8776e-03  2.4641e-03  0:00:09  118
  1883  1.5087e-02  1.1335e-02  7.0574e-02  4.6495e+01  1.5054e-02  4.8762e-03  2.4666e-03  0:00:07  117
  1884  1.4837e-02  1.1378e-02  7.0417e-02  4.5885e+01  1.4804e-02  4.8592e-03  2.4690e-03  0:00:05  116
  1885  1.4794e-02  1.1418e-02  7.0170e-02  4.4938e+01  1.4762e-02  4.8452e-03  2.4845e-03  0:00:04  115
  1886  1.4911e-02  1.1455e-02  6.9874e-02  4.4046e+01  1.4878e-02  4.8375e-03  2.4964e-03  0:00:26  114
  1887  1.5143e-02  1.1495e-02  6.9571e-02  4.3592e+01  1.5110e-02  4.8218e-03  2.5280e-03  0:00:21  113
  1888  1.5475e-02  1.1542e-02  6.9276e-02  4.3242e+01  1.5442e-02  4.8195e-03  2.5733e-03  0:00:17  112
  1889  1.5854e-02  1.1588e-02  6.8971e-02  4.3360e+01  1.5821e-02  4.8138e-03  2.6106e-03  0:00:13  111
  1890  1.6181e-02  1.1614e-02  6.8615e-02  4.3794e+01  1.6148e-02  4.8060e-03  2.6326e-03  0:00:10  110
  1891  1.6564e-02  1.1549e-02  6.8228e-02  4.3492e+01  1.6532e-02  4.8068e-03  2.6482e-03  0:00:08  109
  1892  1.7036e-02  1.1467e-02  6.7807e-02  4.2601e+01  1.7005e-02  4.7987e-03  2.6575e-03  0:00:07  108

  iter  continuity  x-velocity  y-velocity  z-velocity      energy           k       omega     time/iter
  1893  1.7499e-02  1.1414e-02  6.7354e-02  4.1479e+01  1.7470e-02  4.7877e-03  2.6563e-03  0:00:05  107
  1894  1.7988e-02  1.1354e-02  6.6898e-02  4.0181e+01  1.7959e-02  4.7674e-03  2.6475e-03  0:00:04  106
  1895  1.8535e-02  1.1298e-02  6.6473e-02  3.9006e+01  1.8506e-02  4.7338e-03  2.6545e-03  0:00:24  105
  1896  1.9113e-02  1.1222e-02  6.6058e-02  3.7844e+01  1.9085e-02  4.7114e-03  2.6556e-03  0:00:19  104
  1897  1.9677e-02  1.1177e-02  6.5645e-02  3.7061e+01  1.9648e-02  4.6940e-03  2.6651e-03  0:00:15  103
  1898  2.0189e-02  1.1147e-02  6.5242e-02  3.6517e+01  2.0161e-02  4.6875e-03  2.6916e-03  0:00:12  102
  1899  2.0598e-02  1.1091e-02  6.4880e-02  3.6241e+01  2.0570e-02  4.6776e-03  2.7190e-03  0:00:10  101
  1900  2.0999e-02  1.0986e-02  6.4538e-02  3.5747e+01  2.0971e-02  4.6718e-03  2.7384e-03  0:00:08  100
  1901  2.1457e-02  1.0885e-02  6.4228e-02  3.5077e+01  2.1429e-02  4.6609e-03  2.7390e-03  0:00:06   99
  1902  2.1953e-02  1.0767e-02  6.3981e-02  3.4126e+01  2.1925e-02  4.6602e-03  2.7264e-03  0:00:05   98
  1903  2.2510e-02  1.0638e-02  6.3830e-02  3.3281e+01  2.2483e-02  4.6648e-03  2.7072e-03  0:00:04   97

  iter  continuity  x-velocity  y-velocity  z-velocity      energy           k       omega     time/iter
  1904  2.3156e-02  1.0533e-02  6.3734e-02  3.2524e+01  2.3128e-02  4.6552e-03  2.6953e-03  0:00:22   96
  1905  2.3888e-02  1.0431e-02  6.3661e-02  3.2032e+01  2.3861e-02  4.6387e-03  2.6755e-03  0:00:18   95
  1906  2.4635e-02  1.0336e-02  6.3614e-02  3.1883e+01  2.4606e-02  4.6234e-03  2.6531e-03  0:00:14   94
  1907  2.5367e-02  1.0239e-02  6.3580e-02  3.1998e+01  2.5339e-02  4.6055e-03  2.6411e-03  0:00:11   93
  1908  2.6084e-02  1.0122e-02  6.3613e-02  3.2186e+01  2.6055e-02  4.5818e-03  2.6258e-03  0:00:09   92
  1909  2.6837e-02  9.9901e-03  6.3698e-02  3.2689e+01  2.6808e-02  4.5703e-03  2.6187e-03  0:00:07   91
  1910  2.7669e-02  9.8902e-03  6.3830e-02  3.3144e+01  2.7640e-02  4.5674e-03  2.6091e-03  0:00:05   90
  1911  2.8420e-02  9.8031e-03  6.4011e-02  3.3584e+01  2.8391e-02  4.5651e-03  2.5955e-03  0:00:04   89
  1912  2.9202e-02  9.6984e-03  6.4270e-02  3.4007e+01  2.9172e-02  4.5610e-03  2.5753e-03  0:00:03   88
  1913  3.0093e-02  9.5856e-03  6.4568e-02  3.4533e+01  3.0062e-02  4.5679e-03  2.5657e-03  0:00:03   87
  1914  3.1112e-02  9.5313e-03  6.4880e-02  3.5013e+01  3.1081e-02  4.5705e-03  2.5393e-03  0:00:19   86

  iter  continuity  x-velocity  y-velocity  z-velocity      energy           k       omega     time/iter
  1915  3.2152e-02  9.5381e-03  6.5197e-02  3.5598e+01  3.2119e-02  4.5780e-03  2.5108e-03  0:00:15   85
  1916  3.3078e-02  9.5788e-03  6.5510e-02  3.6712e+01  3.3045e-02  4.5762e-03  2.4882e-03  0:00:12   84
  1917  3.3962e-02  9.6329e-03  6.5853e-02  3.7615e+01  3.3929e-02  4.5646e-03  2.4719e-03  0:00:10   83
  1918  3.4709e-02  9.6634e-03  6.6242e-02  3.7915e+01  3.4675e-02  4.5520e-03  2.4501e-03  0:00:08   82
  1919  3.5397e-02  9.6794e-03  6.6683e-02  3.7857e+01  3.5362e-02  4.5466e-03  2.4198e-03  0:00:06   81
  1920  3.5855e-02  9.7188e-03  6.7154e-02  3.7851e+01  3.5820e-02  4.5443e-03  2.3921e-03  0:00:05   80
  1921  3.6064e-02  9.7526e-03  6.7657e-02  3.8419e+01  3.6029e-02  4.5409e-03  2.3731e-03  0:00:04   79
  1922  3.6081e-02  9.7654e-03  6.8178e-02  3.9102e+01  3.6045e-02  4.5432e-03  2.3608e-03  0:00:03   78
  1923  3.5921e-02  9.7470e-03  6.8714e-02  3.9925e+01  3.5884e-02  4.5482e-03  2.3425e-03  0:00:18   77
  1924  3.5604e-02  9.7269e-03  6.9263e-02  4.0676e+01  3.5567e-02  4.5552e-03  2.3238e-03  0:00:14   76
  1925  3.5093e-02  9.7321e-03  6.9812e-02  4.1460e+01  3.5056e-02  4.5575e-03  2.3047e-03  0:00:11   75

  iter  continuity  x-velocity  y-velocity  z-velocity      energy           k       omega     time/iter
  1926  3.4314e-02  9.7869e-03  7.0352e-02  4.1893e+01  3.4278e-02  4.5558e-03  2.2851e-03  0:00:09   74
  1927  3.3360e-02  9.8596e-03  7.0896e-02  4.1684e+01  3.3324e-02  4.5617e-03  2.2741e-03  0:00:07   73
  1928  3.2176e-02  9.8934e-03  7.1455e-02  4.0970e+01  3.2141e-02  4.5611e-03  2.2504e-03  0:00:05   72
  1929  3.0830e-02  9.9406e-03  7.2015e-02  4.0073e+01  3.0795e-02  4.5639e-03  2.2261e-03  0:00:04   71
  1930  2.9400e-02  9.9819e-03  7.2554e-02  3.8908e+01  2.9366e-02  4.5660e-03  2.2051e-03  0:00:03   70
  1931  2.7802e-02  1.0003e-02  7.3042e-02  3.7537e+01  2.7769e-02  4.5633e-03  2.1839e-03  0:00:03   69
  1932  2.6009e-02  1.0011e-02  7.3486e-02  3.5927e+01  2.5977e-02  4.5623e-03  2.1774e-03  0:00:16   68
  1933  2.4420e-02  1.0003e-02  7.3872e-02  3.4452e+01  2.4388e-02  4.5571e-03  2.1719e-03  0:00:12   67
  1934  2.3164e-02  9.9915e-03  7.4155e-02  3.3467e+01  2.3133e-02  4.5453e-03  2.1698e-03  0:00:10   66
  1935  2.2271e-02  9.9980e-03  7.4325e-02  3.2758e+01  2.2241e-02  4.5441e-03  2.1730e-03  0:00:08   65
  1936  2.1455e-02  1.0018e-02  7.4395e-02  3.2243e+01  2.1425e-02  4.5524e-03  2.1838e-03  0:00:06   64

  iter  continuity  x-velocity  y-velocity  z-velocity      energy           k       omega     time/iter
  1937  2.0811e-02  1.0020e-02  7.4419e-02  3.1659e+01  2.0783e-02  4.5573e-03  2.1965e-03  0:00:05   63
  1938  2.0113e-02  1.0039e-02  7.4334e-02  3.1189e+01  2.0085e-02  4.5633e-03  2.2050e-03  0:00:04   62
  1939  1.9329e-02  1.0082e-02  7.4165e-02  3.0821e+01  1.9301e-02  4.5687e-03  2.2125e-03  0:00:03   61
  1940  1.8584e-02  1.0112e-02  7.3922e-02  3.0475e+01  1.8557e-02  4.5641e-03  2.2233e-03  0:00:02   60
  1941  1.7988e-02  1.0114e-02  7.3631e-02  3.0014e+01  1.7961e-02  4.5559e-03  2.2315e-03  0:00:02   59
  1942  1.7752e-02  1.0102e-02  7.3308e-02  2.9548e+01  1.7725e-02  4.5469e-03  2.2366e-03  0:00:13   58
  1943  1.7731e-02  1.0082e-02  7.2927e-02  2.8899e+01  1.7704e-02  4.5460e-03  2.2410e-03  0:00:10   57
  1944  1.7735e-02  1.0050e-02  7.2488e-02  2.8249e+01  1.7708e-02  4.5540e-03  2.2518e-03  0:00:08   56
  1945  1.7755e-02  1.0028e-02  7.2022e-02  2.7875e+01  1.7728e-02  4.5598e-03  2.2583e-03  0:00:06   55
  1946  1.7998e-02  9.9770e-03  7.1571e-02  2.7381e+01  1.7971e-02  4.5687e-03  2.2808e-03  0:00:05   54
  1947  1.8403e-02  9.9178e-03  7.1209e-02  2.6670e+01  1.8376e-02  4.5674e-03  2.2985e-03  0:00:04   53

  iter  continuity  x-velocity  y-velocity  z-velocity      energy           k       omega     time/iter
  1948  1.8893e-02  9.8673e-03  7.0882e-02  2.6326e+01  1.8865e-02  4.5596e-03  2.3287e-03  0:00:03   52
  1949  1.9256e-02  9.8310e-03  7.0488e-02  2.6464e+01  1.9228e-02  4.5507e-03  2.3484e-03  0:00:02   51
  1950  1.9646e-02  9.7998e-03  7.0066e-02  2.6936e+01  1.9618e-02  4.5455e-03  2.3578e-03  0:00:02   50
  1951  2.0194e-02  9.7706e-03  6.9714e-02  2.7083e+01  2.0165e-02  4.5500e-03  2.3582e-03  0:00:11   49
  1952  2.0601e-02  9.7397e-03  6.9376e-02  2.7455e+01  2.0572e-02  4.5434e-03  2.3770e-03  0:00:09   48
  1953  2.1019e-02  9.7255e-03  6.9047e-02  2.7947e+01  2.0990e-02  4.5487e-03  2.3813e-03  0:00:07   47
  1954  2.1537e-02  9.7041e-03  6.8760e-02  2.8382e+01  2.1507e-02  4.5558e-03  2.3896e-03  0:00:05   46
  1955  2.1951e-02  9.6636e-03  6.8447e-02  2.9047e+01  2.1920e-02  4.5555e-03  2.4138e-03  0:00:04   45
  1956  2.2569e-02  9.6649e-03  6.8229e-02  2.9589e+01  2.2538e-02  4.5539e-03  2.4199e-03  0:00:03   44
  1957  2.3212e-02  9.7123e-03  6.7957e-02  3.0199e+01  2.3180e-02  4.5552e-03  2.4240e-03  0:00:03   43
  1958  2.3873e-02  9.7941e-03  6.7728e-02  3.0937e+01  2.3841e-02  4.5619e-03  2.4421e-03  0:00:02   42

  iter  continuity  x-velocity  y-velocity  z-velocity      energy           k       omega     time/iter
  1959  2.4453e-02  9.8542e-03  6.7406e-02  3.1812e+01  2.4421e-02  4.5676e-03  2.4501e-03  0:00:02   41
  1960  2.5026e-02  9.9145e-03  6.7023e-02  3.1782e+01  2.4993e-02  4.5676e-03  2.4492e-03  0:00:09   40
  1961  2.5535e-02  9.9929e-03  6.6824e-02  3.2432e+01  2.5502e-02  4.5784e-03  2.4383e-03  0:00:07   39
  1962  2.6144e-02  1.0045e-02  6.6537e-02  3.2873e+01  2.6111e-02  4.5858e-03  2.4223e-03  0:00:06   38
  1963  2.6811e-02  1.0123e-02  6.6370e-02  3.3739e+01  2.6777e-02  4.5876e-03  2.4257e-03  0:00:04   37
  1964  2.7267e-02  1.0157e-02  6.6218e-02  3.4272e+01  2.7233e-02  4.5912e-03  2.4261e-03  0:00:03   36
  1965  2.7697e-02  1.0195e-02  6.6003e-02  3.4771e+01  2.7662e-02  4.6140e-03  2.4265e-03  0:00:03   35
  1966  2.8130e-02  1.0280e-02  6.5838e-02  3.4949e+01  2.8094e-02  4.6370e-03  2.4254e-03  0:00:02   34
  1967  2.8588e-02  1.0373e-02  6.5744e-02  3.5175e+01  2.8552e-02  4.6672e-03  2.4303e-03  0:00:02   33
  1968  2.9000e-02  1.0463e-02  6.5649e-02  3.5506e+01  2.8963e-02  4.6827e-03  2.4321e-03  0:00:01   32
  1969  2.9297e-02  1.0578e-02  6.5507e-02  3.5694e+01  2.9260e-02  4.7009e-03  2.4236e-03  0:00:07   31

  iter  continuity  x-velocity  y-velocity  z-velocity      energy           k       omega     time/iter
  1970  2.9401e-02  1.0690e-02  6.5404e-02  3.5661e+01  2.9365e-02  4.7170e-03  2.4158e-03  0:00:06   30
  1971  2.9353e-02  1.0759e-02  6.5358e-02  3.5371e+01  2.9316e-02  4.7252e-03  2.4116e-03  0:00:04   29
  1972  2.9208e-02  1.0805e-02  6.5348e-02  3.5037e+01  2.9171e-02  4.7393e-03  2.4102e-03  0:00:03   28
  1973  2.9049e-02  1.0813e-02  6.5446e-02  3.4520e+01  2.9012e-02  4.7630e-03  2.4150e-03  0:00:03   27
  1974  2.8846e-02  1.0812e-02  6.5669e-02  3.4113e+01  2.8809e-02  4.7787e-03  2.4178e-03  0:00:02   26
  1975  2.8570e-02  1.0801e-02  6.5951e-02  3.3908e+01  2.8533e-02  4.7891e-03  2.4137e-03  0:00:02   25
  1976  2.8216e-02  1.0798e-02  6.6280e-02  3.3609e+01  2.8179e-02  4.7936e-03  2.4139e-03  0:00:01   24
  1977  2.7726e-02  1.0848e-02  6.6651e-02  3.2982e+01  2.7690e-02  4.7958e-03  2.4130e-03  0:00:01   23
  1978  2.7050e-02  1.0913e-02  6.7022e-02  3.2325e+01  2.7015e-02  4.8081e-03  2.4186e-03  0:00:05   22
  1979  2.6203e-02  1.0953e-02  6.7399e-02  3.1635e+01  2.6169e-02  4.8099e-03  2.4201e-03  0:00:04   21
  1980  2.5248e-02  1.1001e-02  6.7752e-02  3.0944e+01  2.5214e-02  4.8249e-03  2.4201e-03  0:00:03   20

  iter  continuity  x-velocity  y-velocity  z-velocity      energy           k       omega     time/iter
  1981  2.4250e-02  1.1070e-02  6.8089e-02  2.9970e+01  2.4217e-02  4.8263e-03  2.4278e-03  0:00:02   19
  1982  2.3180e-02  1.1126e-02  6.8398e-02  2.8946e+01  2.3148e-02  4.8200e-03  2.4345e-03  0:00:02   18
  1983  2.2099e-02  1.1160e-02  6.8689e-02  2.7890e+01  2.2067e-02  4.8066e-03  2.4397e-03  0:00:01   17
  1984  2.0999e-02  1.1188e-02  6.8986e-02  2.6835e+01  2.0967e-02  4.7901e-03  2.4427e-03  0:00:01   16
  1985  1.9942e-02  1.1218e-02  6.9272e-02  2.5799e+01  1.9910e-02  4.7723e-03  2.4466e-03  0:00:01   15
  1986  1.8952e-02  1.1260e-02  6.9568e-02  2.4839e+01  1.8919e-02  4.7680e-03  2.4522e-03  0:00:01   14
  1987  1.8039e-02  1.1299e-02  6.9861e-02  2.4064e+01  1.8006e-02  4.7624e-03  2.4557e-03  0:00:00   13
  1988  1.7134e-02  1.1320e-02  7.0129e-02  2.3507e+01  1.7101e-02  4.7689e-03  2.4465e-03  0:00:03   12
  1989  1.6327e-02  1.1275e-02  7.0292e-02  2.3137e+01  1.6294e-02  4.7765e-03  2.4509e-03  0:00:02   11
  1990  1.5719e-02  1.1277e-02  7.0386e-02  2.2787e+01  1.5686e-02  4.7824e-03  2.4448e-03  0:00:01   10
  1991  1.5269e-02  1.1315e-02  7.0359e-02  2.2293e+01  1.5237e-02  4.7811e-03  2.4414e-03  0:00:01    9

  iter  continuity  x-velocity  y-velocity  z-velocity      energy           k       omega     time/iter
  1992  1.4978e-02  1.1364e-02  7.0239e-02  2.1818e+01  1.4946e-02  4.7693e-03  2.4525e-03  0:00:01    8
  1993  1.4880e-02  1.1406e-02  7.0023e-02  2.1452e+01  1.4848e-02  4.7518e-03  2.4626e-03  0:00:01    7
  1994  1.4956e-02  1.1446e-02  6.9749e-02  2.1017e+01  1.4924e-02  4.7384e-03  2.4712e-03  0:00:00    6
  1995  1.5152e-02  1.1491e-02  6.9457e-02  2.0829e+01  1.5119e-02  4.7271e-03  2.5064e-03  0:00:01    5
  1996  1.5459e-02  1.1535e-02  6.9159e-02  2.0784e+01  1.5426e-02  4.7231e-03  2.5444e-03  0:00:01    4
  1997  1.5801e-02  1.1582e-02  6.8862e-02  2.0826e+01  1.5768e-02  4.7174e-03  2.5833e-03  0:00:00    3
  1998  1.6099e-02  1.1619e-02  6.8503e-02  2.0989e+01  1.6067e-02  4.7067e-03  2.6069e-03  0:00:00    2
  1999  1.6439e-02  1.1594e-02  6.8119e-02  2.1000e+01  1.6408e-02  4.6996e-03  2.6235e-03  0:00:00    1
  2000  1.6896e-02  1.1497e-02  6.7705e-02  2.0765e+01  1.6865e-02  4.6951e-03  2.6320e-03  0:00:00    0

> 
adjoint/                parallel/               server/
define/                 parametric-study/       solve/
display/                plot/                   surface/
exit                    preferences/            turbo-workflow/
file/                   print-license-usage     views/
mesh/                   report/

> /file/write-case-data project1
Fast-loading "C:\PROGRA~1\ANSYSI~1\v231\fluent\fluent23.1.0\\addons\afd\lib\hdfio.bin"
Done.

Writing to Engs-30669:"C:\Users\kebl7595\Desktop\CFD\Runs\Flap\Shallower Aspect Ratio\Even Larger Size\project1.cas.h5" in NODE0 mode and compression level 1 ...
       24072 cells,     1 zone  ...
       80918 faces,     7 zones ...
       33000 nodes,     1 zone  ...
  Done.
Done.

Writing to Engs-30669:"C:\Users\kebl7595\Desktop\CFD\Runs\Flap\Shallower Aspect Ratio\Even Larger Size\project1.dat.h5" in NODE0 mode and compression level 1 ...
  Writing results.
Done.

> /file/export/ascii "./surface.dat" wing () no pressure mach-number quit no

Writing "./surface.dat"...

Writing information to ascii file ...
Done.


> /report/forces/wall-forces y -0. -1 0 y "Lift"

> /report/forces/wall-forces y 1 -0. 0 y "Drag"

> /exit

Posting ANSYS Product Improvement Program performance data 
Done.
Auto-Transcript Stop Time:  11:15:59, 22 May 2024 GMT Daylight Time 
Total Transcript Time: 4 Minute 15 Second.
