Auto-Transcript Start Time:  10:15:27, 21 May 2024 GMT Daylight Time 
Current Directory: "C:\Users\kebl7595\Desktop\CFD\Runs\Viscous\coarser"

              Welcome to ANSYS Fluent 2023 R1

              Copyright 1987-2023 ANSYS, Inc. All Rights Reserved.
              Unauthorized use, distribution or duplication is prohibited.
              This product is subject to U.S. laws governing export and re-export.
              For full Legal Notice, see documentation.

Build Time: Nov 28 2022 09:52:02 EST  Build Id: 10208  
 
Connected License Server List:	1055@ansyslic.eng.ox.ac.uk

*********************************************
Info: Your license enables 4-way parallel execution.
For faster simulations, please start the application with the appropriate parallel options.
*********************************************


     --------------------------------------------------------------
     This is an academic version of ANSYS FLUENT. Usage of this product
     license is limited to the terms and conditions specified in your ANSYS
     license form, additional terms section.
     --------------------------------------------------------------
Host spawning Node 0 on machine "Engs-30669" (win64).

------------------------------------------------------------------------------------
ID    Hostname    Core  O.S.         PID    Vendor                                 
------------------------------------------------------------------------------------
n0    Engs-30669  1/32  Windows-x64  31028  13th Gen Intel(R) Core(TM) i9-13900    
host  Engs-30669        Windows-x64  26796  13th Gen Intel(R) Core(TM) i9-13900    

MPI Option Selected: intel
------------------------------------------------------------------------------------

Cleanup script file is C:\\Users\\kebl7595\\Desktop\\CFD\\Runs\\Viscous\\coarser\\cleanup-fluent-Engs-30669-26796.bat
QA Service Message :
QA Services Agreement Enabled. This application is included in the scope of an ANSYS QA Services Agreement.
Posting ANSYS Product Improvement Program startup data
Done.

Reading journal file C:/Users/kebl7595/Desktop/CFD/Runs/Viscous/coarser/project1.jou...

> /file/set-batch-options no no no 

> 
define/                 parametric-study/       solve/
display/                plot/                   surface/
exit                    preferences/            switch-to-meshing-mode
file/                   print-license-usage     turbo-workflow/
mesh/                   report/                 views/
parallel/               server/

> /file/import/cgns/mesh  "./project1.cgns"
Engs-30669 has other FLUENT parallel processes running.                       Process affinity not being set.

Importing "./project1.cgns"

Opening library "C:\\PROGRA~1\\ANSYSI~1\\v231\\fluent\\fluent23.1.0\\vki\\win64\\devtools4.4.6.dll"... done.

Read     9388 nodes
    6750 hexahedral cells, zone  1
    5076 quadrilateral wall faces, zone  2.
   17505 quadrilateral interior faces, zone  3.
     204 quadrilateral interface faces, zone  4.
       6 quadrilateral wall faces, zone  5.

Building...
     mesh
     materials,
     interface,
     domains,
     zones,
	default_exterior-1
	interface-default_subface
	default_interior-1
	default_subface
	default
     parallel,
The automatic selection for flux type has changed to Rhie-Chow: momentum based.

Done.


> 
adjoint/                parallel/               server/
define/                 parametric-study/       solve/
display/                plot/                   surface/
exit                    preferences/            turbo-workflow/
file/                   print-license-usage     views/
mesh/                   report/

> /define/models/solver/density-based-implicit yes

> 
adjoint/                parallel/               server/
define/                 parametric-study/       solve/
display/                plot/                   surface/
exit                    preferences/            turbo-workflow/
file/                   print-license-usage     views/
mesh/                   report/

> /define/models/energy? yes yes invalid command [yes]
yes

> /define/models/viscous/kw-standard? yes

> 
adjoint/                parallel/               server/
define/                 parametric-study/       solve/
display/                plot/                   surface/
exit                    preferences/            turbo-workflow/
file/                   print-license-usage     views/
mesh/                   report/

> /define/materials/change-create air air air is a fluid
yes 
Density
ideal-gas no data required.

no no no no no no

> 
adjoint/                parallel/               server/
define/                 parametric-study/       solve/
display/                plot/                   surface/
exit                    preferences/            turbo-workflow/
file/                   print-license-usage     views/
mesh/                   report/

> /mesh/modify-zones/sep-face-zone-angle 2 90 yes

 2250 faces in contiguous region 0
 156 faces in contiguous region 1
 270 faces in contiguous region 2
 2250 faces in contiguous region 3
 150 faces in contiguous region 4
 Separates zone 2 into 5 zone(s).
Updating new zone information...
   created new zone default_subface:010 from default_subface
   created new zone default_subface:009 from default_subface
   created new zone default_subface:008 from default_subface
   created new zone default_subface:007 from default_subface
done.

> 
adjoint/                parallel/               server/
define/                 parametric-study/       solve/
display/                plot/                   surface/
exit                    preferences/            turbo-workflow/
file/                   print-license-usage     views/
mesh/                   report/

> /define/boundary-conditions/zone-name  5   te

> /define/boundary-conditions/zone-name  7 wing

> /define/boundary-conditions/zone-name  2 sym1

> /define/boundary-conditions/zone-name  9 sym2

> 
adjoint/                parallel/               server/
define/                 parametric-study/       solve/
display/                plot/                   surface/
exit                    preferences/            turbo-workflow/
file/                   print-license-usage     views/
mesh/                   report/

> /define/boundary-conditions/zone-name  8 far1

> /define/boundary-conditions/zone-name 10 far2

> 
adjoint/                parallel/               server/
define/                 parametric-study/       solve/
display/                plot/                   surface/
exit                    preferences/            turbo-workflow/
file/                   print-license-usage     views/
mesh/                   report/

> /define/boundary-conditions/zone-type  8 pressure-far-field

> /define/boundary-conditions/zone-type 10 pressure-far-field

> /define/boundary-conditions/zone-type  2 symmetry

> /define/boundary-conditions/zone-type  9 symmetry

> 
adjoint/                parallel/               server/
define/                 parametric-study/       solve/
display/                plot/                   surface/
exit                    preferences/            turbo-workflow/
file/                   print-license-usage     views/
mesh/                   report/

> /define/boundary-conditions/pressure-far-field (far2 far1)
far1 no 0 no 0.1 no 300 yes no 0.984808 no 0.173648 no 0. no yes 5 0.02

> /define/boundary-conditions/pressure-far-field (far2 far1)
far2 no 0 no 0.1 no 300 yes no 0.984808 no 0.173648 no 0. no yes 5 0.02

> 
adjoint/                parallel/               server/
define/                 parametric-study/       solve/
display/                plot/                   surface/
exit                    preferences/            turbo-workflow/
file/                   print-license-usage     views/
mesh/                   report/

> /solve/initialize/compute-defaults/pressure-far-field (far2 far1)
far1

> /solve/initialize/initialize-flow

> 
adjoint/                parallel/               server/
define/                 parametric-study/       solve/
display/                plot/                   surface/
exit                    preferences/            turbo-workflow/
file/                   print-license-usage     views/
mesh/                   report/

> /solve/monitors/residual/convergence-criteria 1.e-9 1.e-9 1.e-9 1.e-9 1.e-9 1.e-9 1.e-9

> /solve/iterate 2000

  iter  continuity  x-velocity  y-velocity  z-velocity      energy           k       omega     time/iter
     1  1.0000e+00  1.0000e+00  1.0000e+00  1.0000e+00  1.0000e+00  1.9352e-01  1.3887e-01  0:00:00 1999
     2  4.7479e-01  5.0093e-01  4.9701e-01  1.0000e+00  4.7474e-01  1.4448e-01  1.1121e-01  0:00:00 1998
     3  2.3441e-01  2.7214e-01  2.6111e-01  9.1144e-01  2.3427e-01  1.1243e-01  9.0938e-02  0:00:00 1997
     4  1.3044e-01  1.7844e-01  1.5717e-01  6.4647e-01  1.3030e-01  9.2445e-02  7.5948e-02  0:00:00 1996
     5  9.1589e-02  1.3580e-01  1.0749e-01  8.9597e-01  9.1499e-02  7.8453e-02  6.5165e-02  0:00:00 1995
     6  7.7048e-02  1.0921e-01  7.9649e-02  1.1533e+00  7.6993e-02  6.7534e-02  5.7032e-02  0:00:00 1994
     7  6.9837e-02  9.1872e-02  6.2217e-02  1.1751e+00  6.9780e-02  5.8679e-02  5.0367e-02  0:00:00 1993
     8  6.4279e-02  7.9816e-02  5.0506e-02  1.0355e+00  6.4201e-02  5.1549e-02  4.4885e-02  0:00:00 1992
     9  6.0018e-02  7.1033e-02  4.2350e-02  8.6020e-01  5.9921e-02  4.5980e-02  4.0298e-02  0:00:00 1991
    10  5.6735e-02  6.5383e-02  3.6486e-02  7.3081e-01  5.6626e-02  4.1529e-02  3.6431e-02  0:00:00 1990
    11  5.4038e-02  6.1759e-02  3.2365e-02  6.8082e-01  5.3923e-02  3.7812e-02  3.3250e-02  0:00:00 1989

  iter  continuity  x-velocity  y-velocity  z-velocity      energy           k       omega     time/iter
    12  5.1408e-02  5.9704e-02  2.9423e-02  6.8322e-01  5.1290e-02  3.4667e-02  3.0519e-02  0:00:00 1988
    13  4.8640e-02  5.8101e-02  2.7283e-02  7.3102e-01  4.8522e-02  3.1920e-02  2.8142e-02  0:00:00 1987
    14  4.5869e-02  5.6778e-02  2.5723e-02  8.1831e-01  4.5752e-02  2.9573e-02  2.6082e-02  0:00:00 1986
    15  4.2796e-02  5.5706e-02  2.4720e-02  9.3843e-01  4.2680e-02  2.7506e-02  2.4283e-02  0:33:05 1985
    16  3.9666e-02  5.4905e-02  2.4236e-02  1.0779e+00  3.9553e-02  2.5647e-02  2.2678e-02  0:26:27 1984
    17  3.6608e-02  5.4291e-02  2.4011e-02  1.2216e+00  3.6495e-02  2.3985e-02  2.1234e-02  0:21:09 1983
    18  3.3405e-02  5.2585e-02  2.3684e-02  1.3569e+00  3.3294e-02  2.2494e-02  1.9939e-02  0:16:55 1982
    19  3.0384e-02  5.1250e-02  2.3471e-02  1.4696e+00  3.0273e-02  2.1128e-02  1.8768e-02  0:13:31 1981
    20  2.7525e-02  5.0140e-02  2.3283e-02  1.5491e+00  2.7417e-02  1.9880e-02  1.7699e-02  0:10:49 1980
    21  2.4967e-02  4.9343e-02  2.2992e-02  1.5891e+00  2.4862e-02  1.8709e-02  1.6716e-02  0:08:39 1979
    22  2.2781e-02  4.8480e-02  2.2622e-02  1.5881e+00  2.2679e-02  1.7620e-02  1.5811e-02  0:06:55 1978

  iter  continuity  x-velocity  y-velocity  z-velocity      energy           k       omega     time/iter
    23  2.0852e-02  4.7628e-02  2.2213e-02  1.5484e+00  2.0757e-02  1.6595e-02  1.4963e-02  0:05:32 1977
    24  1.9105e-02  4.6813e-02  2.1550e-02  1.4829e+00  1.9017e-02  1.5625e-02  1.4169e-02  0:04:25 1976
    25  1.7704e-02  4.5792e-02  2.0849e-02  1.4038e+00  1.7626e-02  1.4692e-02  1.3418e-02  0:03:32 1975
    26  1.6702e-02  4.4644e-02  2.0276e-02  1.3265e+00  1.6634e-02  1.3797e-02  1.2701e-02  0:02:50 1974
    27  1.5736e-02  4.3299e-02  1.9551e-02  1.2718e+00  1.5680e-02  1.2933e-02  1.2018e-02  0:02:16 1973
    28  1.4879e-02  4.1870e-02  1.8639e-02  1.2454e+00  1.4836e-02  1.2091e-02  1.1358e-02  0:01:48 1972
    29  1.4151e-02  4.0376e-02  1.7607e-02  1.2544e+00  1.4119e-02  1.1283e-02  1.0737e-02  0:01:27 1971
    30  1.3560e-02  3.8826e-02  1.6514e-02  1.2877e+00  1.3540e-02  1.0535e-02  1.0146e-02  0:01:09 1970
    31  1.3073e-02  3.7277e-02  1.5397e-02  1.3259e+00  1.3062e-02  9.8289e-03  9.5739e-03  0:00:55 1969
    32  1.2665e-02  3.5792e-02  1.4297e-02  1.3552e+00  1.2661e-02  9.1656e-03  9.0302e-03  0:00:44 1968
    33  1.2326e-02  3.4443e-02  1.3253e-02  1.3765e+00  1.2327e-02  8.5616e-03  8.5097e-03  0:00:35 1967

  iter  continuity  x-velocity  y-velocity  z-velocity      energy           k       omega     time/iter
    34  1.2018e-02  3.3217e-02  1.2293e-02  1.3873e+00  1.2021e-02  7.9986e-03  8.0139e-03  0:00:28 1966
    35  1.1743e-02  3.2102e-02  1.1447e-02  1.3703e+00  1.1745e-02  7.4853e-03  7.5390e-03  0:00:23 1965
    36  1.1471e-02  3.0683e-02  1.0688e-02  1.3283e+00  1.1469e-02  7.0226e-03  7.0846e-03  0:00:18 1964
    37  1.1226e-02  2.9654e-02  1.0071e-02  1.2766e+00  1.1219e-02  6.5911e-03  6.6463e-03  0:00:14 1963
    38  1.0972e-02  2.8963e-02  9.5971e-03  1.2107e+00  1.0959e-02  6.3652e-03  6.3360e-03  0:06:44 1962
    39  1.0706e-02  2.8417e-02  9.2420e-03  1.1436e+00  1.0688e-02  5.9340e-03  5.8906e-03  0:05:23 1961
    40  1.0426e-02  2.7972e-02  8.9827e-03  1.0789e+00  1.0401e-02  5.5560e-03  5.4771e-03  0:04:18 1960
    41  1.0151e-02  2.7590e-02  8.7992e-03  1.0091e+00  1.0121e-02  5.2405e-03  5.0989e-03  0:03:27 1959
    42  9.8984e-03  2.7270e-02  8.6628e-03  9.3406e-01  9.8628e-03  4.9670e-03  4.7491e-03  0:02:45 1958
    43  9.6756e-03  2.7009e-02  8.5690e-03  8.5814e-01  9.6361e-03  4.7211e-03  4.4132e-03  0:02:12 1957
    44  9.4764e-03  2.6783e-02  8.5098e-03  7.8627e-01  9.4342e-03  4.5076e-03  4.0924e-03  0:01:46 1956

  iter  continuity  x-velocity  y-velocity  z-velocity      energy           k       omega     time/iter
    45  9.3158e-03  2.6606e-02  8.4686e-03  7.2205e-01  9.2721e-03  4.3366e-03  3.7961e-03  0:01:24 1955
    46  9.2033e-03  2.6466e-02  8.4424e-03  6.7439e-01  9.1593e-03  4.2076e-03  3.5288e-03  0:01:08 1954
    47  9.1771e-03  2.6380e-02  8.4586e-03  6.4112e-01  9.1339e-03  4.1102e-03  3.2792e-03  0:00:54 1953
    48  9.2331e-03  2.6339e-02  8.5089e-03  6.2240e-01  9.1916e-03  4.0474e-03  3.0489e-03  0:00:43 1952
    49  9.1638e-03  2.6349e-02  8.4577e-03  6.2418e-01  9.1243e-03  4.0048e-03  2.8370e-03  0:00:35 1951
    50  9.1976e-03  2.6424e-02  8.4245e-03  6.4640e-01  9.1609e-03  3.9841e-03  2.6423e-03  0:00:28 1950
    51  9.3491e-03  2.6533e-02  8.4228e-03  6.8740e-01  9.3155e-03  3.9894e-03  2.4667e-03  0:00:22 1949
    52  9.6253e-03  2.6679e-02  8.4345e-03  7.4171e-01  9.5948e-03  4.0239e-03  2.3108e-03  0:00:18 1948
    53  1.0005e-02  2.6838e-02  8.4555e-03  7.9423e-01  9.9775e-03  4.0790e-03  2.1670e-03  0:00:14 1947
    54  1.0568e-02  2.6981e-02  8.4744e-03  8.3814e-01  1.0543e-02  4.1647e-03  2.0440e-03  0:00:11 1946
    55  1.1425e-02  2.7134e-02  8.4734e-03  8.6714e-01  1.1402e-02  4.2725e-03  1.9339e-03  0:00:09 1945

  iter  continuity  x-velocity  y-velocity  z-velocity      energy           k       omega     time/iter
    56  1.2385e-02  2.7248e-02  8.4190e-03  8.8046e-01  1.2363e-02  4.4026e-03  1.8385e-03  0:00:07 1944
    57  1.3309e-02  2.7314e-02  8.4004e-03  8.7731e-01  1.3288e-02  4.5250e-03  1.7525e-03  0:00:06 1943
    58  1.4013e-02  2.7324e-02  8.3993e-03  8.6011e-01  1.3992e-02  4.6365e-03  1.6717e-03  0:00:05 1942
    59  1.4586e-02  2.7290e-02  8.3911e-03  8.2899e-01  1.4564e-02  4.7424e-03  1.5977e-03  0:00:04 1941
    60  1.5062e-02  2.7193e-02  8.3712e-03  7.8304e-01  1.5040e-02  4.8375e-03  1.5313e-03  0:00:03 1940
    61  1.5386e-02  2.6996e-02  8.3210e-03  7.2608e-01  1.5363e-02  4.9378e-03  1.4750e-03  0:00:02 1939
    62  1.5689e-02  2.6768e-02  8.2724e-03  6.6433e-01  1.5666e-02  5.0107e-03  1.4171e-03  0:00:02 1938
    63  1.5932e-02  2.6506e-02  8.2300e-03  6.0879e-01  1.5908e-02  5.0696e-03  1.3611e-03  0:00:02 1937
    64  1.5975e-02  2.6181e-02  8.1096e-03  5.6922e-01  1.5951e-02  5.1117e-03  1.3070e-03  0:06:28 1936
    65  1.5887e-02  2.5781e-02  7.9598e-03  5.5497e-01  1.5862e-02  5.1658e-03  1.2633e-03  0:05:11 1935
    66  1.5433e-02  2.5268e-02  7.7954e-03  5.7341e-01  1.5407e-02  5.2006e-03  1.2277e-03  0:04:08 1934

  iter  continuity  x-velocity  y-velocity  z-velocity      energy           k       omega     time/iter
    67  1.5157e-02  2.4730e-02  7.6150e-03  6.2183e-01  1.5131e-02  5.2131e-03  1.1919e-03  0:03:19 1933
    68  1.4877e-02  2.4153e-02  7.4471e-03  6.9005e-01  1.4850e-02  5.2304e-03  1.1555e-03  0:02:39 1932
    69  1.4510e-02  2.3560e-02  7.2713e-03  7.6912e-01  1.4484e-02  5.2154e-03  1.1286e-03  0:02:07 1931
    70  1.3977e-02  2.2950e-02  7.0820e-03  8.5290e-01  1.3950e-02  5.1990e-03  1.0944e-03  0:01:42 1930
    71  1.3458e-02  2.2322e-02  6.8823e-03  9.3594e-01  1.3433e-02  5.1959e-03  1.0611e-03  0:01:21 1929
    72  1.2946e-02  2.1676e-02  6.6826e-03  1.0120e+00  1.2922e-02  5.1896e-03  1.0278e-03  0:01:05 1928
    73  1.2439e-02  2.1061e-02  6.4824e-03  1.0784e+00  1.2417e-02  5.1824e-03  9.9623e-04  0:00:52 1927
    74  1.1912e-02  2.0472e-02  6.2649e-03  1.1317e+00  1.1891e-02  5.1614e-03  9.7039e-04  0:00:41 1926
    75  1.1303e-02  1.9898e-02  6.0495e-03  1.1718e+00  1.1283e-02  5.1372e-03  9.4081e-04  0:00:33 1925
    76  1.0616e-02  1.9348e-02  5.8461e-03  1.1984e+00  1.0598e-02  5.1337e-03  9.1321e-04  0:00:27 1924
    77  9.8864e-03  1.8842e-02  5.6583e-03  1.2091e+00  9.8699e-03  5.1351e-03  8.8535e-04  0:00:21 1923

  iter  continuity  x-velocity  y-velocity  z-velocity      energy           k       omega     time/iter
    78  9.1719e-03  1.8392e-02  5.4658e-03  1.2018e+00  9.1572e-03  5.1219e-03  8.5783e-04  0:00:17 1922
    79  8.4863e-03  1.7980e-02  5.2527e-03  1.1764e+00  8.4734e-03  5.1123e-03  8.2830e-04  0:00:14 1921
    80  7.8591e-03  1.7615e-02  5.0519e-03  1.1349e+00  7.8479e-03  5.1048e-03  8.0480e-04  0:00:11 1920
    81  7.2844e-03  1.7300e-02  4.8476e-03  1.0792e+00  7.2749e-03  5.0738e-03  7.8226e-04  0:00:09 1919
    82  6.8193e-03  1.7034e-02  4.6421e-03  1.0114e+00  6.8115e-03  5.0495e-03  7.6156e-04  0:00:07 1918
    83  6.4838e-03  1.6825e-02  4.4371e-03  9.3647e-01  6.4774e-03  5.0314e-03  7.3928e-04  0:00:06 1917
    84  6.2733e-03  1.6666e-02  4.2409e-03  8.5923e-01  6.2681e-03  5.0264e-03  7.1505e-04  0:00:04 1916
    85  6.1817e-03  1.6542e-02  4.0554e-03  7.7846e-01  6.1772e-03  5.0152e-03  6.9168e-04  0:00:04 1915
    86  6.1887e-03  1.6453e-02  3.8859e-03  6.9620e-01  6.1848e-03  5.0008e-03  6.7896e-04  0:00:03 1914
    87  6.2509e-03  1.6389e-02  3.7307e-03  6.1547e-01  6.2471e-03  4.9843e-03  6.6714e-04  0:00:02 1913
    88  6.3268e-03  1.6343e-02  3.5927e-03  5.3697e-01  6.3230e-03  4.9758e-03  6.5516e-04  0:00:02 1912

  iter  continuity  x-velocity  y-velocity  z-velocity      energy           k       omega     time/iter
    89  6.4171e-03  1.6315e-02  3.4730e-03  4.6311e-01  6.4131e-03  4.9851e-03  6.4472e-04  0:00:01 1911
    90  6.5367e-03  1.6301e-02  3.3732e-03  3.9651e-01  6.5324e-03  4.9853e-03  6.3429e-04  0:00:01 1910
    91  6.6765e-03  1.6299e-02  3.2956e-03  3.3961e-01  6.6718e-03  4.9760e-03  6.2517e-04  0:00:01 1909
    92  6.8353e-03  1.6307e-02  3.2387e-03  2.9696e-01  6.8301e-03  4.9626e-03  6.1562e-04  0:06:22 1908
    93  6.9981e-03  1.6324e-02  3.2047e-03  2.7240e-01  6.9924e-03  4.9590e-03  6.1002e-04  0:05:06 1907
    94  7.1693e-03  1.6346e-02  3.1938e-03  2.6561e-01  7.1631e-03  4.9651e-03  6.0650e-04  0:04:04 1906
    95  7.3440e-03  1.6366e-02  3.2041e-03  2.7540e-01  7.3373e-03  4.9773e-03  6.0136e-04  0:03:15 1905
    96  7.5188e-03  1.6384e-02  3.2329e-03  2.9605e-01  7.5115e-03  4.9943e-03  5.9659e-04  0:02:36 1904
    97  7.6944e-03  1.6398e-02  3.2794e-03  3.1776e-01  7.6866e-03  5.0237e-03  5.9361e-04  0:02:05 1903
    98  7.8641e-03  1.6405e-02  3.3423e-03  3.3878e-01  7.8557e-03  5.0410e-03  5.9166e-04  0:01:40 1902
    99  8.0329e-03  1.6409e-02  3.4174e-03  3.5735e-01  8.0239e-03  5.0560e-03  5.8825e-04  0:01:20 1901

  iter  continuity  x-velocity  y-velocity  z-velocity      energy           k       omega     time/iter
   100  8.2322e-03  1.6407e-02  3.5031e-03  3.7156e-01  8.2226e-03  5.0812e-03  5.8410e-04  0:01:04 1900
   101  8.4362e-03  1.6403e-02  3.5951e-03  3.8059e-01  8.4259e-03  5.1145e-03  5.7626e-04  0:00:51 1899
   102  8.6262e-03  1.6387e-02  3.6928e-03  3.8370e-01  8.6154e-03  5.1472e-03  5.7085e-04  0:00:41 1898
   103  8.8148e-03  1.6363e-02  3.7950e-03  3.8280e-01  8.8033e-03  5.1714e-03  5.6431e-04  0:00:33 1897
   104  9.0018e-03  1.6330e-02  3.8961e-03  3.7634e-01  8.9897e-03  5.1965e-03  5.6138e-04  0:00:26 1896
   105  9.1963e-03  1.6289e-02  3.9960e-03  3.6579e-01  9.1836e-03  5.2172e-03  5.5778e-04  0:00:21 1895
   106  9.3824e-03  1.6246e-02  4.1018e-03  3.5311e-01  9.3692e-03  5.2194e-03  5.5278e-04  0:00:17 1894
   107  9.5685e-03  1.6191e-02  4.2040e-03  3.3844e-01  9.5547e-03  5.2287e-03  5.4616e-04  0:00:13 1893
   108  9.7577e-03  1.6121e-02  4.2892e-03  3.2164e-01  9.7435e-03  5.2314e-03  5.4001e-04  0:00:11 1892
   109  9.9379e-03  1.6036e-02  4.3668e-03  3.0244e-01  9.9233e-03  5.2207e-03  5.3277e-04  0:00:09 1891
   110  1.0090e-02  1.5936e-02  4.4347e-03  2.8244e-01  1.0075e-02  5.2068e-03  5.2551e-04  0:00:07 1890

  iter  continuity  x-velocity  y-velocity  z-velocity      energy           k       omega     time/iter
   111  1.0230e-02  1.5823e-02  4.4913e-03  2.6472e-01  1.0214e-02  5.2070e-03  5.1984e-04  0:00:05 1889
   112  1.0345e-02  1.5701e-02  4.5343e-03  2.4863e-01  1.0329e-02  5.2073e-03  5.1349e-04  0:00:04 1888
   113  1.0432e-02  1.5565e-02  4.5628e-03  2.3398e-01  1.0416e-02  5.2022e-03  5.0555e-04  0:00:03 1887
   114  1.0481e-02  1.5414e-02  4.5765e-03  2.1945e-01  1.0465e-02  5.1986e-03  4.9936e-04  0:00:03 1886
   115  1.0483e-02  1.5245e-02  4.5756e-03  2.0697e-01  1.0467e-02  5.1857e-03  4.9659e-04  0:00:02 1885
   116  1.0437e-02  1.5056e-02  4.5613e-03  1.9676e-01  1.0420e-02  5.1713e-03  4.9027e-04  0:00:02 1884
   117  1.0328e-02  1.4851e-02  4.5337e-03  1.8864e-01  1.0311e-02  5.1632e-03  4.8290e-04  0:00:01 1883
   118  1.0191e-02  1.4628e-02  4.4935e-03  1.8268e-01  1.0174e-02  5.1580e-03  4.7830e-04  0:00:01 1882
   119  1.0020e-02  1.4387e-02  4.4410e-03  1.7808e-01  1.0003e-02  5.1344e-03  4.7156e-04  0:00:01 1881
   120  9.7836e-03  1.4120e-02  4.3753e-03  1.7320e-01  9.7668e-03  5.1206e-03  4.6186e-04  0:00:01 1880
   121  9.5286e-03  1.3843e-02  4.3004e-03  1.6996e-01  9.5118e-03  5.1035e-03  4.5424e-04  0:06:16 1879

  iter  continuity  x-velocity  y-velocity  z-velocity      energy           k       omega     time/iter
   122  9.2662e-03  1.3554e-02  4.2146e-03  1.6732e-01  9.2495e-03  5.0806e-03  4.4571e-04  0:05:01 1878
   123  8.9889e-03  1.3254e-02  4.1265e-03  1.6512e-01  8.9723e-03  5.0476e-03  4.3885e-04  0:04:01 1877
   124  8.7010e-03  1.2945e-02  4.0358e-03  1.6275e-01  8.6846e-03  5.0164e-03  4.3064e-04  0:03:12 1876
   125  8.4111e-03  1.2632e-02  3.9457e-03  1.5947e-01  8.3949e-03  4.9968e-03  4.2043e-04  0:02:34 1875
   126  8.1198e-03  1.2308e-02  3.8527e-03  1.5666e-01  8.1038e-03  4.9918e-03  4.1153e-04  0:02:03 1874
   127  7.8196e-03  1.1986e-02  3.7591e-03  1.5400e-01  7.8040e-03  4.9797e-03  4.0398e-04  0:01:38 1873
   128  7.5278e-03  1.1669e-02  3.6691e-03  1.5078e-01  7.5126e-03  4.9589e-03  3.9669e-04  0:01:19 1872
   129  7.2287e-03  1.1355e-02  3.5814e-03  1.4811e-01  7.2139e-03  4.9232e-03  3.9025e-04  0:01:03 1871
   130  6.8573e-03  1.1046e-02  3.5040e-03  1.4599e-01  6.8427e-03  4.8808e-03  3.7981e-04  0:00:50 1870
   131  6.5966e-03  1.0735e-02  3.4247e-03  1.4451e-01  6.5826e-03  4.8185e-03  3.7267e-04  0:00:40 1869
   132  6.3615e-03  1.0428e-02  3.3436e-03  1.4350e-01  6.3482e-03  4.7619e-03  3.6422e-04  0:00:32 1868

  iter  continuity  x-velocity  y-velocity  z-velocity      energy           k       omega     time/iter
   133  6.1434e-03  1.0122e-02  3.2945e-03  1.4296e-01  6.1308e-03  4.7305e-03  3.6071e-04  0:00:26 1867
   134  5.9433e-03  9.8233e-03  3.2477e-03  1.4293e-01  5.9315e-03  4.6715e-03  3.5496e-04  0:00:21 1866
   135  5.7930e-03  9.5380e-03  3.2073e-03  1.4341e-01  5.7821e-03  4.6122e-03  3.4983e-04  0:00:16 1865
   136  5.7267e-03  9.2692e-03  3.1717e-03  1.4465e-01  5.7168e-03  4.5734e-03  3.4059e-04  0:00:13 1864
   137  5.7425e-03  9.0164e-03  3.1415e-03  1.4688e-01  5.7337e-03  4.5212e-03  3.2985e-04  0:00:11 1863
   138  5.7565e-03  8.7840e-03  3.1185e-03  1.5017e-01  5.7487e-03  4.4913e-03  3.2619e-04  0:00:08 1862
   139  5.7696e-03  8.5696e-03  3.1006e-03  1.5470e-01  5.7628e-03  4.4875e-03  3.2415e-04  0:00:07 1861
   140  5.7857e-03  8.3809e-03  3.0856e-03  1.6064e-01  5.7796e-03  4.4824e-03  3.2206e-04  0:00:05 1860
   141  5.7848e-03  8.2221e-03  3.0701e-03  1.6863e-01  5.7794e-03  4.4537e-03  3.1987e-04  0:00:04 1859
   142  5.7897e-03  8.0925e-03  3.0554e-03  1.7894e-01  5.7849e-03  4.4009e-03  3.1948e-04  0:00:03 1858
   143  5.7988e-03  7.9918e-03  3.0390e-03  1.9192e-01  5.7945e-03  4.3417e-03  3.1756e-04  0:00:03 1857

  iter  continuity  x-velocity  y-velocity  z-velocity      energy           k       omega     time/iter
   144  5.7910e-03  7.9240e-03  3.0242e-03  2.0859e-01  5.7872e-03  4.2670e-03  3.1636e-04  0:00:02 1856
   145  5.8051e-03  7.8892e-03  3.0086e-03  2.3058e-01  5.8017e-03  4.1924e-03  3.1479e-04  0:00:02 1855
   146  5.8291e-03  7.8819e-03  2.9845e-03  2.5999e-01  5.8260e-03  4.1382e-03  3.1420e-04  0:00:01 1854
   147  5.7696e-03  7.8863e-03  2.9552e-03  2.9880e-01  5.7667e-03  4.0909e-03  3.1518e-04  0:00:01 1853
   148  5.8169e-03  7.8991e-03  2.9108e-03  3.4982e-01  5.8143e-03  4.0499e-03  3.1553e-04  0:06:11 1852
   149  5.9096e-03  7.9260e-03  2.8661e-03  4.1566e-01  5.9072e-03  4.0063e-03  3.1466e-04  0:04:57 1851
   150  5.9696e-03  7.9640e-03  2.8325e-03  4.9951e-01  5.9674e-03  3.9594e-03  3.1334e-04  0:03:57 1850
   151  5.9873e-03  8.0059e-03  2.7990e-03  6.0703e-01  5.9852e-03  3.9054e-03  3.1197e-04  0:03:10 1849
   152  5.9766e-03  8.0595e-03  2.7616e-03  7.4473e-01  5.9747e-03  3.8646e-03  3.0785e-04  0:02:32 1848
   153  5.9693e-03  8.1152e-03  2.7131e-03  9.1962e-01  5.9674e-03  3.8441e-03  3.0469e-04  0:02:01 1847
   154  5.9518e-03  8.1689e-03  2.6572e-03  1.1340e+00  5.9500e-03  3.8455e-03  2.9938e-04  0:01:37 1846

  iter  continuity  x-velocity  y-velocity  z-velocity      energy           k       omega     time/iter
   155  5.9195e-03  8.2208e-03  2.5998e-03  1.3946e+00  5.9177e-03  3.8306e-03  2.9439e-04  0:01:18 1845
   156  5.8585e-03  8.2698e-03  2.5432e-03  1.7151e+00  5.8567e-03  3.8007e-03  2.9110e-04  0:01:02 1844
   157  5.7967e-03  8.3159e-03  2.4873e-03  2.1122e+00  5.7948e-03  3.7714e-03  2.8890e-04  0:00:50 1843
   158  5.7505e-03  8.3552e-03  2.4275e-03  2.6145e+00  5.7485e-03  3.7387e-03  2.8612e-04  0:00:40 1842
   159  5.7305e-03  8.3852e-03  2.3677e-03  3.2470e+00  5.7285e-03  3.7019e-03  2.8415e-04  0:00:32 1841
   160  5.7229e-03  8.4102e-03  2.3106e-03  4.0279e+00  5.7209e-03  3.6630e-03  2.8300e-04  0:00:25 1840
   161  5.6890e-03  8.4284e-03  2.2585e-03  4.9734e+00  5.6869e-03  3.6359e-03  2.8044e-04  0:00:20 1839
   162  5.6114e-03  8.4382e-03  2.2098e-03  6.1104e+00  5.6092e-03  3.6200e-03  2.7957e-04  0:00:16 1838
   163  5.5083e-03  8.4356e-03  2.1615e-03  7.5135e+00  5.5060e-03  3.6046e-03  2.7820e-04  0:00:13 1837
   164  5.3995e-03  8.4240e-03  2.1198e-03  9.1681e+00  5.3971e-03  3.5727e-03  2.7590e-04  0:00:10 1836
   165  5.2936e-03  8.4047e-03  2.0824e-03  1.1107e+01  5.2910e-03  3.5384e-03  2.7545e-04  0:00:08 1835

  iter  continuity  x-velocity  y-velocity  z-velocity      energy           k       omega     time/iter
   166  5.1908e-03  8.3761e-03  2.0495e-03  1.3330e+01  5.1880e-03  3.5089e-03  2.7279e-04  0:00:07 1834
   167  5.0898e-03  8.3386e-03  2.0211e-03  1.5765e+01  5.0869e-03  3.4924e-03  2.7122e-04  0:00:05 1833
   168  4.9905e-03  8.2935e-03  1.9969e-03  1.8422e+01  4.9875e-03  3.4852e-03  2.6849e-04  0:00:04 1832
   169  4.8942e-03  8.2410e-03  1.9729e-03  2.1232e+01  4.8911e-03  3.4804e-03  2.6741e-04  0:00:03 1831
   170  4.7992e-03  8.1834e-03  1.9451e-03  2.4014e+01  4.7959e-03  3.4656e-03  2.6540e-04  0:00:03 1830
   171  4.7019e-03  8.1209e-03  1.9198e-03  2.6552e+01  4.6986e-03  3.4341e-03  2.6103e-04  0:00:02 1829
   172  4.6099e-03  8.0502e-03  1.8866e-03  2.8578e+01  4.6064e-03  3.4012e-03  2.5691e-04  0:00:02 1828
   173  4.5192e-03  7.9732e-03  1.8523e-03  3.0007e+01  4.5156e-03  3.3851e-03  2.5293e-04  0:00:01 1827
   174  4.4231e-03  7.8875e-03  1.8169e-03  3.0708e+01  4.4194e-03  3.3718e-03  2.5106e-04  0:00:01 1826
   175  4.3221e-03  7.7924e-03  1.7832e-03  3.0836e+01  4.3183e-03  3.3468e-03  2.4638e-04  0:00:01 1825
   176  4.2166e-03  7.6863e-03  1.7504e-03  3.0576e+01  4.2127e-03  3.3140e-03  2.4413e-04  0:06:06 1824

  iter  continuity  x-velocity  y-velocity  z-velocity      energy           k       omega     time/iter
   177  4.1058e-03  7.5699e-03  1.7179e-03  2.9838e+01  4.1018e-03  3.2746e-03  2.4141e-04  0:04:52 1823
   178  3.9900e-03  7.4418e-03  1.6850e-03  2.8856e+01  3.9860e-03  3.2426e-03  2.3837e-04  0:03:54 1822
   179  3.8681e-03  7.3014e-03  1.6503e-03  2.7819e+01  3.8640e-03  3.2163e-03  2.3605e-04  0:03:07 1821
   180  3.7416e-03  7.1496e-03  1.6124e-03  2.6747e+01  3.7375e-03  3.1868e-03  2.3375e-04  0:02:29 1820
   181  3.6131e-03  6.9934e-03  1.5739e-03  2.6326e+01  3.6089e-03  3.1552e-03  2.3060e-04  0:01:59 1819
   182  3.4840e-03  6.8328e-03  1.5339e-03  2.6920e+01  3.4798e-03  3.1319e-03  2.2675e-04  0:01:36 1818
   183  3.3539e-03  6.6671e-03  1.4961e-03  2.8203e+01  3.3497e-03  3.1051e-03  2.2373e-04  0:01:16 1817
   184  3.2240e-03  6.4999e-03  1.4602e-03  2.9637e+01  3.2198e-03  3.0805e-03  2.2130e-04  0:01:01 1816
   185  3.0947e-03  6.3337e-03  1.4244e-03  3.1043e+01  3.0905e-03  3.0496e-03  2.1645e-04  0:00:49 1815
   186  2.9641e-03  6.1700e-03  1.3893e-03  3.2083e+01  2.9599e-03  3.0121e-03  2.1242e-04  0:00:39 1814
   187  2.8323e-03  6.0081e-03  1.3539e-03  3.2542e+01  2.8281e-03  2.9697e-03  2.0838e-04  0:00:31 1813

  iter  continuity  x-velocity  y-velocity  z-velocity      energy           k       omega     time/iter
   188  2.6961e-03  5.8480e-03  1.3224e-03  3.2606e+01  2.6919e-03  2.9183e-03  2.0729e-04  0:00:25 1812
   189  2.5575e-03  5.6906e-03  1.2871e-03  3.2373e+01  2.5533e-03  2.8678e-03  2.0497e-04  0:00:20 1811
   190  2.4145e-03  5.5361e-03  1.2514e-03  3.1905e+01  2.4104e-03  2.8093e-03  2.0216e-04  0:00:16 1810
   191  2.2666e-03  5.3853e-03  1.2153e-03  3.1270e+01  2.2625e-03  2.7425e-03  1.9966e-04  0:00:13 1809
   192  2.1176e-03  5.2369e-03  1.1806e-03  3.0426e+01  2.1136e-03  2.6701e-03  1.9595e-04  0:00:10 1808
   193  1.9704e-03  5.0896e-03  1.1431e-03  2.9611e+01  1.9664e-03  2.6030e-03  1.9227e-04  0:00:08 1807
   194  1.8255e-03  4.9454e-03  1.1047e-03  2.8884e+01  1.8215e-03  2.5411e-03  1.8764e-04  0:00:07 1806
   195  1.6806e-03  4.8014e-03  1.0663e-03  2.8330e+01  1.6767e-03  2.4858e-03  1.8326e-04  0:00:05 1805
   196  1.5399e-03  4.6589e-03  1.0289e-03  2.7591e+01  1.5360e-03  2.4337e-03  1.7949e-04  0:00:04 1804
   197  1.4035e-03  4.5167e-03  9.9213e-04  2.6756e+01  1.3997e-03  2.3785e-03  1.7564e-04  0:00:03 1803
   198  1.2749e-03  4.3751e-03  9.5542e-04  2.5737e+01  1.2712e-03  2.3245e-03  1.7220e-04  0:00:03 1802

  iter  continuity  x-velocity  y-velocity  z-velocity      energy           k       omega     time/iter
   199  1.1578e-03  4.2364e-03  9.1972e-04  2.4362e+01  1.1542e-03  2.2728e-03  1.6878e-04  0:00:02 1801
   200  1.0532e-03  4.0998e-03  8.8554e-04  2.2993e+01  1.0497e-03  2.2187e-03  1.6524e-04  0:00:02 1800
   201  9.6123e-04  3.9661e-03  8.5219e-04  2.1826e+01  9.5791e-04  2.1650e-03  1.6121e-04  0:00:01 1799
   202  8.8478e-04  3.8353e-03  8.1998e-04  2.0746e+01  8.8164e-04  2.1093e-03  1.5621e-04  0:00:01 1798
   203  8.2908e-04  3.7081e-03  7.8955e-04  1.9720e+01  8.2614e-04  2.0503e-03  1.5076e-04  0:06:00 1797
   204  7.8792e-04  3.5832e-03  7.6066e-04  1.8627e+01  7.8520e-04  1.9910e-03  1.4564e-04  0:04:48 1796
   205  7.6209e-04  3.4586e-03  7.3342e-04  1.7589e+01  7.5959e-04  1.9307e-03  1.4105e-04  0:03:50 1795
   206  7.5246e-04  3.3355e-03  7.0784e-04  1.6591e+01  7.5020e-04  1.8727e-03  1.3665e-04  0:03:04 1794
   207  7.5580e-04  3.2151e-03  6.8465e-04  1.5474e+01  7.5375e-04  1.8114e-03  1.3221e-04  0:02:27 1793
   208  7.6559e-04  3.0974e-03  6.6368e-04  1.4357e+01  7.6371e-04  1.7495e-03  1.2736e-04  0:01:58 1792
   209  7.7888e-04  2.9822e-03  6.4469e-04  1.3289e+01  7.7713e-04  1.6893e-03  1.2337e-04  0:01:34 1791

  iter  continuity  x-velocity  y-velocity  z-velocity      energy           k       omega     time/iter
   210  7.9496e-04  2.8700e-03  6.2765e-04  1.2287e+01  7.9330e-04  1.6335e-03  1.1923e-04  0:01:15 1790
   211  8.1181e-04  2.7606e-03  6.1129e-04  1.1316e+01  8.1021e-04  1.5762e-03  1.1499e-04  0:01:00 1789
   212  8.2715e-04  2.6540e-03  5.9502e-04  1.0378e+01  8.2557e-04  1.5203e-03  1.1097e-04  0:00:48 1788
   213  8.3956e-04  2.5503e-03  5.7901e-04  9.5374e+00  8.3798e-04  1.4654e-03  1.0707e-04  0:00:38 1787
   214  8.4853e-04  2.4497e-03  5.6354e-04  8.7730e+00  8.4693e-04  1.4155e-03  1.0407e-04  0:00:31 1786
   215  8.5396e-04  2.3519e-03  5.4852e-04  8.1421e+00  8.5233e-04  1.3679e-03  1.0117e-04  0:00:25 1785
   216  8.5615e-04  2.2578e-03  5.3395e-04  7.5355e+00  8.5449e-04  1.3206e-03  9.8395e-05  0:00:20 1784
   217  8.5439e-04  2.1670e-03  5.1974e-04  6.9336e+00  8.5268e-04  1.2750e-03  9.5781e-05  0:00:16 1783
   218  8.4964e-04  2.0799e-03  5.0575e-04  6.3665e+00  8.4788e-04  1.2309e-03  9.3281e-05  0:00:13 1782
   219  8.4300e-04  1.9966e-03  4.9270e-04  5.8723e+00  8.4118e-04  1.1883e-03  9.0647e-05  0:00:10 1781
   220  8.3502e-04  1.9174e-03  4.8076e-04  5.4231e+00  8.3315e-04  1.1460e-03  8.7987e-05  0:00:08 1780

  iter  continuity  x-velocity  y-velocity  z-velocity      energy           k       omega     time/iter
   221  8.2640e-04  1.8423e-03  4.7018e-04  4.9962e+00  8.2447e-04  1.1044e-03  8.5306e-05  0:00:06 1779
   222  8.1771e-04  1.7717e-03  4.6125e-04  4.5913e+00  8.1572e-04  1.0637e-03  8.2578e-05  0:00:05 1778
   223  8.0942e-04  1.7052e-03  4.5422e-04  4.1994e+00  8.0737e-04  1.0239e-03  7.9924e-05  0:00:04 1777
   224  8.0189e-04  1.6428e-03  4.4917e-04  3.8487e+00  7.9979e-04  9.8514e-04  7.7440e-05  0:00:03 1776
   225  7.9540e-04  1.5847e-03  4.4630e-04  3.5379e+00  7.9323e-04  9.4889e-04  7.4871e-05  0:05:58 1775
   226  7.9010e-04  1.5309e-03  4.4554e-04  3.2422e+00  7.8787e-04  9.1398e-04  7.2114e-05  0:04:46 1774
   227  7.8603e-04  1.4813e-03  4.4695e-04  2.9858e+00  7.8374e-04  8.8058e-04  6.9543e-05  0:03:49 1773
   228  7.8308e-04  1.4360e-03  4.5035e-04  2.7871e+00  7.8073e-04  8.4810e-04  6.7307e-05  0:03:03 1772
   229  7.8112e-04  1.3947e-03  4.5564e-04  2.6217e+00  7.7871e-04  8.1665e-04  6.5180e-05  0:02:26 1771
   230  7.8001e-04  1.3573e-03  4.6260e-04  2.4621e+00  7.7752e-04  7.8606e-04  6.2869e-05  0:01:57 1770
   231  7.7954e-04  1.3236e-03  4.7096e-04  2.3135e+00  7.7699e-04  7.5542e-04  6.0457e-05  0:01:33 1769

  iter  continuity  x-velocity  y-velocity  z-velocity      energy           k       omega     time/iter
   232  7.7951e-04  1.2932e-03  4.8044e-04  2.1684e+00  7.7690e-04  7.2666e-04  5.8111e-05  0:01:15 1768
   233  7.7974e-04  1.2658e-03  4.9070e-04  2.0285e+00  7.7707e-04  6.9809e-04  5.5654e-05  0:01:00 1767
   234  7.8002e-04  1.2408e-03  5.0143e-04  1.8998e+00  7.7729e-04  6.7001e-04  5.3468e-05  0:00:48 1766
   235  7.8013e-04  1.2180e-03  5.1233e-04  1.7849e+00  7.7734e-04  6.4240e-04  5.1358e-05  0:00:38 1765
   236  7.7987e-04  1.1971e-03  5.2312e-04  1.6696e+00  7.7703e-04  6.1574e-04  4.9312e-05  0:00:31 1764
   237  7.7905e-04  1.1778e-03  5.3350e-04  1.5504e+00  7.7616e-04  5.9036e-04  4.7380e-05  0:00:24 1763
   238  7.7756e-04  1.1598e-03  5.4334e-04  1.4273e+00  7.7462e-04  5.6667e-04  4.5551e-05  0:00:20 1762
   239  7.7519e-04  1.1429e-03  5.5254e-04  1.3095e+00  7.7221e-04  5.4484e-04  4.3845e-05  0:00:16 1761
   240  7.7179e-04  1.1269e-03  5.6097e-04  1.2029e+00  7.6877e-04  5.2481e-04  4.2273e-05  0:00:12 1760
   241  7.6737e-04  1.1118e-03  5.6849e-04  1.1085e+00  7.6432e-04  5.0723e-04  4.0800e-05  0:00:10 1759
   242  7.6192e-04  1.0973e-03  5.7501e-04  1.0209e+00  7.5885e-04  4.9020e-04  3.9436e-05  0:00:08 1758

  iter  continuity  x-velocity  y-velocity  z-velocity      energy           k       omega     time/iter
   243  7.5553e-04  1.0837e-03  5.8047e-04  9.4142e-01  7.5243e-04  4.7365e-04  3.8231e-05  0:00:06 1757
   244  7.4826e-04  1.0708e-03  5.8483e-04  8.7044e-01  7.4514e-04  4.5797e-04  3.7120e-05  0:00:05 1756
   245  7.4018e-04  1.0586e-03  5.8808e-04  8.0431e-01  7.3706e-04  4.4347e-04  3.6067e-05  0:00:04 1755
   246  7.3143e-04  1.0473e-03  5.9021e-04  7.4377e-01  7.2830e-04  4.3052e-04  3.5077e-05  0:00:03 1754
   247  7.2214e-04  1.0368e-03  5.9125e-04  6.8600e-01  7.1901e-04  4.1832e-04  3.4218e-05  0:00:03 1753
   248  7.1246e-04  1.0274e-03  5.9129e-04  6.3752e-01  7.0934e-04  4.0657e-04  3.3450e-05  0:00:02 1752
   249  7.0256e-04  1.0193e-03  5.9040e-04  6.0180e-01  6.9945e-04  3.9491e-04  3.2757e-05  0:00:02 1751
   250  6.9281e-04  1.0134e-03  5.8936e-04  5.8371e-01  6.8973e-04  3.8372e-04  3.2127e-05  0:05:51 1750
   251  6.8384e-04  1.0109e-03  5.8840e-04  5.8079e-01  6.8079e-04  3.7339e-04  3.1581e-05  0:04:41 1749
   252  6.7495e-04  1.0097e-03  5.8555e-04  5.9623e-01  6.7194e-04  3.6400e-04  3.1032e-05  0:03:45 1748
   253  6.6596e-04  1.0095e-03  5.8155e-04  6.3835e-01  6.6300e-04  3.5534e-04  3.0571e-05  0:03:00 1747

  iter  continuity  x-velocity  y-velocity  z-velocity      energy           k       omega     time/iter
   254  6.5725e-04  1.0103e-03  5.7695e-04  6.8684e-01  6.5435e-04  3.4741e-04  3.0191e-05  0:02:24 1746
   255  6.4893e-04  1.0104e-03  5.6702e-04  7.2624e-01  6.4610e-04  3.3977e-04  3.0048e-05  0:01:55 1745
   256  6.4081e-04  1.0114e-03  5.4957e-04  7.5189e-01  6.3805e-04  3.3252e-04  2.9919e-05  0:01:32 1744
   257  6.3433e-04  1.0149e-03  5.3451e-04  7.5984e-01  6.3166e-04  3.2544e-04  2.9820e-05  0:01:13 1743
   258  6.2950e-04  1.0211e-03  5.2381e-04  7.4888e-01  6.2693e-04  3.1920e-04  2.9791e-05  0:00:59 1742
   259  6.2612e-04  1.0304e-03  5.1599e-04  7.2122e-01  6.2366e-04  3.1372e-04  2.9835e-05  0:00:47 1741
   260  6.2426e-04  1.0426e-03  5.0947e-04  6.8034e-01  6.2192e-04  3.0988e-04  2.9886e-05  0:00:38 1740
   261  6.2410e-04  1.0573e-03  5.0335e-04  6.3000e-01  6.2188e-04  3.0688e-04  2.9929e-05  0:00:30 1739
   262  6.2592e-04  1.0743e-03  4.9723e-04  5.8115e-01  6.2382e-04  3.0420e-04  2.9885e-05  0:00:24 1738
   263  6.2974e-04  1.0932e-03  4.9098e-04  5.4467e-01  6.2777e-04  3.0158e-04  3.0067e-05  0:00:19 1737
   264  6.3565e-04  1.1137e-03  4.8457e-04  5.3339e-01  6.3381e-04  2.9897e-04  3.0368e-05  0:00:15 1736

  iter  continuity  x-velocity  y-velocity  z-velocity      energy           k       omega     time/iter
   265  6.4394e-04  1.1356e-03  4.7770e-04  5.5126e-01  6.4222e-04  2.9808e-04  3.0733e-05  0:00:12 1735
   266  6.5518e-04  1.1587e-03  4.7120e-04  5.9588e-01  6.5359e-04  2.9926e-04  3.1207e-05  0:00:10 1734
   267  6.6792e-04  1.1836e-03  4.6677e-04  6.6027e-01  6.6645e-04  3.0096e-04  3.1661e-05  0:00:08 1733
   268  6.8240e-04  1.2098e-03  4.6309e-04  7.3926e-01  6.8104e-04  3.0353e-04  3.2162e-05  0:00:06 1732
   269  6.9852e-04  1.2365e-03  4.5939e-04  8.2366e-01  6.9727e-04  3.0722e-04  3.2655e-05  0:00:05 1731
   270  7.1614e-04  1.2634e-03  4.5518e-04  9.0149e-01  7.1500e-04  3.1063e-04  3.3122e-05  0:00:04 1730
   271  7.3514e-04  1.2903e-03  4.5024e-04  9.6062e-01  7.3409e-04  3.1379e-04  3.3543e-05  0:00:03 1729
   272  7.5543e-04  1.3171e-03  4.4457e-04  9.9684e-01  7.5445e-04  3.1664e-04  3.3945e-05  0:00:03 1728
   273  7.7687e-04  1.3437e-03  4.3830e-04  1.0174e+00  7.7596e-04  3.1924e-04  3.4339e-05  0:00:02 1727
   274  7.9925e-04  1.3701e-03  4.3162e-04  1.0116e+00  7.9840e-04  3.2186e-04  3.4752e-05  0:05:47 1726
   275  8.2138e-04  1.3960e-03  4.2473e-04  9.8566e-01  8.2057e-04  3.2511e-04  3.5181e-05  0:04:37 1725

  iter  continuity  x-velocity  y-velocity  z-velocity      energy           k       omega     time/iter
   276  8.4345e-04  1.4215e-03  4.1772e-04  9.4718e-01  8.4268e-04  3.2924e-04  3.5683e-05  0:03:42 1724
   277  8.6664e-04  1.4462e-03  4.1069e-04  9.0230e-01  8.6590e-04  3.3664e-04  3.6249e-05  0:02:57 1723
   278  8.9059e-04  1.4700e-03  4.0373e-04  8.4921e-01  8.8987e-04  3.4404e-04  3.6914e-05  0:02:22 1722
   279  9.1465e-04  1.4929e-03  3.9692e-04  7.9451e-01  9.1395e-04  3.5112e-04  3.7587e-05  0:01:53 1721
   280  9.3822e-04  1.5145e-03  3.9029e-04  7.4016e-01  9.3753e-04  3.5789e-04  3.8357e-05  0:01:31 1720
   281  9.6087e-04  1.5348e-03  3.8388e-04  6.9006e-01  9.6019e-04  3.6403e-04  3.9038e-05  0:01:12 1719
   282  9.8223e-04  1.5536e-03  3.7769e-04  6.4292e-01  9.8155e-04  3.6868e-04  3.9767e-05  0:00:58 1718
   283  1.0020e-03  1.5708e-03  3.7180e-04  5.9347e-01  1.0013e-03  3.7443e-04  4.0410e-05  0:00:46 1717
   284  1.0199e-03  1.5864e-03  3.6618e-04  5.4668e-01  1.0192e-03  3.7935e-04  4.0929e-05  0:00:37 1716
   285  1.0362e-03  1.6003e-03  3.6078e-04  5.0055e-01  1.0355e-03  3.8363e-04  4.1325e-05  0:00:30 1715
   286  1.0507e-03  1.6124e-03  3.5563e-04  4.5095e-01  1.0500e-03  3.8743e-04  4.1724e-05  0:00:24 1714

  iter  continuity  x-velocity  y-velocity  z-velocity      energy           k       omega     time/iter
   287  1.0639e-03  1.6226e-03  3.5071e-04  4.0058e-01  1.0631e-03  3.9137e-04  4.2167e-05  0:00:19 1713
   288  1.0753e-03  1.6310e-03  3.4602e-04  3.6092e-01  1.0745e-03  3.9643e-04  4.2605e-05  0:00:15 1712
   289  1.0846e-03  1.6374e-03  3.4159e-04  3.3681e-01  1.0838e-03  4.0218e-04  4.3027e-05  0:00:12 1711
   290  1.0918e-03  1.6419e-03  3.3742e-04  3.2572e-01  1.0910e-03  4.0727e-04  4.3417e-05  0:00:10 1710
   291  1.0968e-03  1.6444e-03  3.3353e-04  3.0578e-01  1.0960e-03  4.1183e-04  4.3829e-05  0:00:08 1709
   292  1.0997e-03  1.6450e-03  3.3010e-04  2.8543e-01  1.0989e-03  4.1598e-04  4.4189e-05  0:00:06 1708
   293  1.1000e-03  1.6436e-03  3.2675e-04  2.6961e-01  1.0991e-03  4.2047e-04  4.4504e-05  0:00:05 1707
   294  1.0987e-03  1.6403e-03  3.2365e-04  2.5856e-01  1.0978e-03  4.2506e-04  4.4800e-05  0:00:04 1706
   295  1.0960e-03  1.6353e-03  3.2092e-04  2.5222e-01  1.0951e-03  4.2892e-04  4.5015e-05  0:00:03 1705
   296  1.0914e-03  1.6285e-03  3.1836e-04  2.4221e-01  1.0905e-03  4.3248e-04  4.5104e-05  0:00:03 1704
   297  1.0848e-03  1.6199e-03  3.1603e-04  2.3434e-01  1.0839e-03  4.3597e-04  4.5198e-05  0:00:02 1703

  iter  continuity  x-velocity  y-velocity  z-velocity      energy           k       omega     time/iter
   298  1.0763e-03  1.6095e-03  3.1395e-04  2.2425e-01  1.0754e-03  4.3942e-04  4.5288e-05  0:00:02 1702
   299  1.0659e-03  1.5973e-03  3.1214e-04  2.1977e-01  1.0649e-03  4.4343e-04  4.5332e-05  0:05:41 1701
   300  1.0535e-03  1.5834e-03  3.1063e-04  2.2014e-01  1.0524e-03  4.4702e-04  4.5060e-05  0:04:33 1700
   301  1.0391e-03  1.5679e-03  3.0916e-04  2.2099e-01  1.0380e-03  4.5037e-04  4.4974e-05  0:03:38 1699
   302  1.0227e-03  1.5507e-03  3.0781e-04  2.2357e-01  1.0216e-03  4.5323e-04  4.4955e-05  0:02:55 1698
   303  1.0045e-03  1.5321e-03  3.0656e-04  2.2711e-01  1.0034e-03  4.5562e-04  4.4857e-05  0:02:20 1697
   304  9.8449e-04  1.5120e-03  3.0541e-04  2.3287e-01  9.8339e-04  4.5746e-04  4.4705e-05  0:01:52 1696
   305  9.6281e-04  1.4905e-03  3.0429e-04  2.3546e-01  9.6169e-04  4.5882e-04  4.4502e-05  0:01:29 1695
   306  9.3958e-04  1.4677e-03  3.0317e-04  2.3800e-01  9.3845e-04  4.5981e-04  4.4319e-05  0:01:11 1694
   307  9.1500e-04  1.4436e-03  3.0196e-04  2.4749e-01  9.1385e-04  4.5970e-04  4.4032e-05  0:00:57 1693
   308  8.8916e-04  1.4183e-03  3.0065e-04  2.5883e-01  8.8800e-04  4.5899e-04  4.3786e-05  0:00:46 1692

  iter  continuity  x-velocity  y-velocity  z-velocity      energy           k       omega     time/iter
   309  8.6219e-04  1.3920e-03  2.9915e-04  2.5649e-01  8.6101e-04  4.5851e-04  4.3434e-05  0:00:36 1691
   310  8.3420e-04  1.3646e-03  2.9744e-04  2.5484e-01  8.3302e-04  4.5704e-04  4.3098e-05  0:00:29 1690
   311  8.0525e-04  1.3362e-03  2.9572e-04  2.8143e-01  8.0406e-04  4.5553e-04  4.2743e-05  0:00:23 1689
   312  7.7521e-04  1.3068e-03  2.9380e-04  3.2263e-01  7.7401e-04  4.5385e-04  4.2249e-05  0:00:19 1688
   313  7.4462e-04  1.2766e-03  2.9163e-04  3.5777e-01  7.4341e-04  4.5166e-04  4.1768e-05  0:00:15 1687
   314  7.1362e-04  1.2454e-03  2.8920e-04  3.9746e-01  7.1241e-04  4.4886e-04  4.1165e-05  0:00:12 1686
   315  6.8227e-04  1.2136e-03  2.8645e-04  4.4228e-01  6.8105e-04  4.4544e-04  4.0552e-05  0:00:10 1685
   316  6.5028e-04  1.1812e-03  2.8337e-04  4.9823e-01  6.4905e-04  4.4168e-04  3.9899e-05  0:00:08 1684
   317  6.1845e-04  1.1483e-03  2.7999e-04  5.1787e-01  6.1722e-04  4.3617e-04  3.9224e-05  0:00:06 1683
   318  5.8677e-04  1.1151e-03  2.7630e-04  5.3312e-01  5.8555e-04  4.2959e-04  3.8458e-05  0:00:05 1682
   319  5.5534e-04  1.0815e-03  2.7235e-04  5.5133e-01  5.5411e-04  4.2205e-04  3.7549e-05  0:00:04 1681

  iter  continuity  x-velocity  y-velocity  z-velocity      energy           k       omega     time/iter
   320  5.2406e-04  1.0479e-03  2.6808e-04  5.7862e-01  5.2283e-04  4.1480e-04  3.6727e-05  0:00:03 1680
   321  4.9295e-04  1.0139e-03  2.6350e-04  6.1240e-01  4.9172e-04  4.0717e-04  3.5887e-05  0:00:02 1679
   322  4.6266e-04  9.8001e-04  2.5868e-04  6.4517e-01  4.6144e-04  4.0048e-04  3.4967e-05  0:05:38 1678
   323  4.3346e-04  9.4640e-04  2.5366e-04  6.5977e-01  4.3224e-04  3.9441e-04  3.4084e-05  0:04:30 1677
   324  4.0531e-04  9.1292e-04  2.4845e-04  6.5505e-01  4.0409e-04  3.8811e-04  3.3225e-05  0:03:36 1676
   325  3.7834e-04  8.7957e-04  2.4306e-04  6.3966e-01  3.7712e-04  3.8168e-04  3.2384e-05  0:02:53 1675
   326  3.5271e-04  8.4643e-04  2.3752e-04  6.1515e-01  3.5150e-04  3.7472e-04  3.1637e-05  0:02:18 1674
   327  3.2865e-04  8.1363e-04  2.3183e-04  5.8063e-01  3.2745e-04  3.6755e-04  3.0839e-05  0:01:50 1673
   328  3.0629e-04  7.8114e-04  2.2603e-04  5.4840e-01  3.0510e-04  3.6025e-04  3.0186e-05  0:01:28 1672
   329  2.8591e-04  7.4929e-04  2.2015e-04  5.2852e-01  2.8474e-04  3.5261e-04  2.9582e-05  0:01:11 1671
   330  2.6775e-04  7.1819e-04  2.1425e-04  5.1785e-01  2.6661e-04  3.4470e-04  2.8940e-05  0:00:56 1670

  iter  continuity  x-velocity  y-velocity  z-velocity      energy           k       omega     time/iter
   331  2.5209e-04  6.8788e-04  2.0838e-04  5.0591e-01  2.5098e-04  3.3677e-04  2.8246e-05  0:00:45 1669
   332  2.3917e-04  6.5844e-04  2.0258e-04  4.8328e-01  2.3810e-04  3.2890e-04  2.7530e-05  0:00:36 1668
   333  2.2919e-04  6.2993e-04  1.9690e-04  4.5685e-01  2.2818e-04  3.2092e-04  2.6790e-05  0:00:29 1667
   334  2.2223e-04  6.0246e-04  1.9137e-04  4.3504e-01  2.2127e-04  3.1296e-04  2.6069e-05  0:00:23 1666
   335  2.1821e-04  5.7609e-04  1.8601e-04  4.2375e-01  2.1732e-04  3.0496e-04  2.5362e-05  0:00:18 1665
   336  2.1690e-04  5.5092e-04  1.8085e-04  4.2266e-01  2.1609e-04  2.9696e-04  2.4640e-05  0:00:15 1664
   337  2.1795e-04  5.2697e-04  1.7588e-04  4.2825e-01  2.1722e-04  2.8892e-04  2.3885e-05  0:00:12 1663
   338  2.2091e-04  5.0421e-04  1.7113e-04  4.3850e-01  2.2025e-04  2.8066e-04  2.3130e-05  0:00:09 1662
   339  2.2530e-04  4.8265e-04  1.6662e-04  4.4722e-01  2.2471e-04  2.7237e-04  2.2427e-05  0:00:08 1661
   340  2.3075e-04  4.6231e-04  1.6233e-04  4.5272e-01  2.3022e-04  2.6421e-04  2.1714e-05  0:00:06 1660
   341  2.3693e-04  4.4321e-04  1.5826e-04  4.5686e-01  2.3645e-04  2.5643e-04  2.1026e-05  0:00:05 1659

  iter  continuity  x-velocity  y-velocity  z-velocity      energy           k       omega     time/iter
   342  2.4352e-04  4.2539e-04  1.5443e-04  4.4558e-01  2.4309e-04  2.4881e-04  2.0370e-05  0:05:35 1658
   343  2.5019e-04  4.0885e-04  1.5080e-04  4.2790e-01  2.4981e-04  2.4141e-04  1.9733e-05  0:04:28 1657
   344  2.5678e-04  3.9372e-04  1.4736e-04  4.1666e-01  2.5643e-04  2.3445e-04  1.9106e-05  0:03:34 1656
   345  2.6308e-04  3.8000e-04  1.4411e-04  4.0420e-01  2.6276e-04  2.2770e-04  1.8512e-05  0:02:51 1655
   346  2.6896e-04  3.6770e-04  1.4103e-04  3.9128e-01  2.6866e-04  2.2109e-04  1.7930e-05  0:02:17 1654
   347  2.7413e-04  3.5674e-04  1.3785e-04  3.8140e-01  2.7385e-04  2.1449e-04  1.7414e-05  0:01:50 1653
   348  2.7880e-04  3.4713e-04  1.3475e-04  3.7810e-01  2.7854e-04  2.0806e-04  1.6937e-05  0:01:28 1652
   349  2.8286e-04  3.3878e-04  1.3157e-04  3.8217e-01  2.8261e-04  2.0154e-04  1.6474e-05  0:01:10 1651
   350  2.8628e-04  3.3171e-04  1.2846e-04  3.9137e-01  2.8604e-04  1.9494e-04  1.6020e-05  0:00:56 1650
   351  2.8908e-04  3.2588e-04  1.2553e-04  4.0231e-01  2.8884e-04  1.8831e-04  1.5590e-05  0:00:45 1649
   352  2.9127e-04  3.2120e-04  1.2286e-04  4.1176e-01  2.9104e-04  1.8221e-04  1.5192e-05  0:00:36 1648

  iter  continuity  x-velocity  y-velocity  z-velocity      energy           k       omega     time/iter
   353  2.9287e-04  3.1757e-04  1.2045e-04  4.1595e-01  2.9264e-04  1.7721e-04  1.4842e-05  0:00:29 1647
   354  2.9389e-04  3.1489e-04  1.1830e-04  4.1302e-01  2.9366e-04  1.7278e-04  1.4496e-05  0:00:23 1646
   355  2.9436e-04  3.1304e-04  1.1636e-04  4.0511e-01  2.9413e-04  1.6883e-04  1.4168e-05  0:00:18 1645
   356  2.9429e-04  3.1189e-04  1.1459e-04  3.9760e-01  2.9406e-04  1.6544e-04  1.3868e-05  0:00:15 1644
   357  2.9371e-04  3.1134e-04  1.1298e-04  3.9231e-01  2.9347e-04  1.6216e-04  1.3568e-05  0:00:12 1643
   358  2.9261e-04  3.1129e-04  1.1148e-04  3.8925e-01  2.9238e-04  1.5880e-04  1.3267e-05  0:00:09 1642
   359  2.9103e-04  3.1165e-04  1.1008e-04  3.8628e-01  2.9079e-04  1.5534e-04  1.2998e-05  0:00:07 1641
   360  2.8897e-04  3.1234e-04  1.0877e-04  3.8231e-01  2.8873e-04  1.5195e-04  1.2789e-05  0:00:06 1640
   361  2.8645e-04  3.1328e-04  1.0753e-04  3.7727e-01  2.8621e-04  1.4866e-04  1.2576e-05  0:00:05 1639
   362  2.8349e-04  3.1441e-04  1.0635e-04  3.7345e-01  2.8325e-04  1.4537e-04  1.2373e-05  0:05:31 1638
   363  2.8011e-04  3.1567e-04  1.0523e-04  3.7239e-01  2.7987e-04  1.4215e-04  1.2177e-05  0:04:25 1637

  iter  continuity  x-velocity  y-velocity  z-velocity      energy           k       omega     time/iter
   364  2.7635e-04  3.1700e-04  1.0416e-04  3.7391e-01  2.7611e-04  1.3908e-04  1.2013e-05  0:03:32 1636
   365  2.7224e-04  3.1835e-04  1.0313e-04  3.7627e-01  2.7200e-04  1.3621e-04  1.1853e-05  0:02:49 1635
   366  2.6781e-04  3.1970e-04  1.0213e-04  3.7797e-01  2.6757e-04  1.3350e-04  1.1702e-05  0:02:15 1634
   367  2.6311e-04  3.2100e-04  1.0116e-04  3.7813e-01  2.6286e-04  1.3171e-04  1.1567e-05  0:01:48 1633
   368  2.5816e-04  3.2223e-04  1.0022e-04  3.7657e-01  2.5791e-04  1.2994e-04  1.1430e-05  0:01:27 1632
   369  2.5294e-04  3.2336e-04  9.9292e-05  3.7313e-01  2.5268e-04  1.2806e-04  1.1292e-05  0:01:09 1631
   370  2.4761e-04  3.2438e-04  9.8386e-05  3.6796e-01  2.4735e-04  1.2618e-04  1.1162e-05  0:00:55 1630
   371  2.4228e-04  3.2529e-04  9.7493e-05  3.6135e-01  2.4202e-04  1.2444e-04  1.1036e-05  0:00:44 1629
   372  2.3690e-04  3.2609e-04  9.6609e-05  3.5397e-01  2.3665e-04  1.2284e-04  1.0906e-05  0:00:35 1628
   373  2.3147e-04  3.2677e-04  9.5734e-05  3.4573e-01  2.3122e-04  1.2143e-04  1.0810e-05  0:00:28 1627
   374  2.2601e-04  3.2732e-04  9.4867e-05  3.3708e-01  2.2576e-04  1.2084e-04  1.0741e-05  0:00:23 1626

  iter  continuity  x-velocity  y-velocity  z-velocity      energy           k       omega     time/iter
   375  2.2057e-04  3.2773e-04  9.4007e-05  3.2838e-01  2.2032e-04  1.2022e-04  1.0672e-05  0:00:18 1625
   376  2.1514e-04  3.2800e-04  9.3152e-05  3.1835e-01  2.1489e-04  1.1948e-04  1.0605e-05  0:00:14 1624
   377  2.0976e-04  3.2814e-04  9.2302e-05  3.0557e-01  2.0952e-04  1.1860e-04  1.0551e-05  0:00:12 1623
   378  2.0446e-04  3.2815e-04  9.1455e-05  2.9434e-01  2.0421e-04  1.1774e-04  1.0498e-05  0:00:09 1622
   379  1.9923e-04  3.2804e-04  9.0610e-05  2.7920e-01  1.9899e-04  1.1743e-04  1.0453e-05  0:00:07 1621
   380  1.9410e-04  3.2782e-04  8.9765e-05  2.5969e-01  1.9386e-04  1.1723e-04  1.0426e-05  0:00:06 1620
   381  1.8908e-04  3.2749e-04  8.8919e-05  2.4627e-01  1.8884e-04  1.1694e-04  1.0397e-05  0:00:05 1619
   382  1.8417e-04  3.2708e-04  8.8071e-05  2.3545e-01  1.8394e-04  1.1651e-04  1.0381e-05  0:00:04 1618
   383  1.7940e-04  3.2658e-04  8.7219e-05  2.2665e-01  1.7917e-04  1.1622e-04  1.0379e-05  0:05:26 1617
   384  1.7471e-04  3.2600e-04  8.6364e-05  2.2038e-01  1.7448e-04  1.1611e-04  1.0391e-05  0:04:21 1616
   385  1.7018e-04  3.2537e-04  8.5502e-05  2.1777e-01  1.6996e-04  1.1592e-04  1.0394e-05  0:03:29 1615

  iter  continuity  x-velocity  y-velocity  z-velocity      energy           k       omega     time/iter
   386  1.6584e-04  3.2467e-04  8.4626e-05  2.1758e-01  1.6562e-04  1.1565e-04  1.0398e-05  0:02:47 1614
   387  1.6168e-04  3.2392e-04  8.3733e-05  2.1734e-01  1.6146e-04  1.1554e-04  1.0413e-05  0:02:13 1613
   388  1.5771e-04  3.2311e-04  8.2821e-05  2.1422e-01  1.5750e-04  1.1541e-04  1.0426e-05  0:01:47 1612
   389  1.5395e-04  3.2224e-04  8.1891e-05  2.0722e-01  1.5375e-04  1.1521e-04  1.0437e-05  0:01:25 1611
   390  1.5042e-04  3.2132e-04  8.0940e-05  1.9858e-01  1.5022e-04  1.1498e-04  1.0443e-05  0:01:08 1610
   391  1.4713e-04  3.2034e-04  7.9967e-05  1.9054e-01  1.4693e-04  1.1485e-04  1.0448e-05  0:00:54 1609
   392  1.4408e-04  3.1929e-04  7.8971e-05  1.8533e-01  1.4389e-04  1.1487e-04  1.0449e-05  0:00:44 1608
   393  1.4127e-04  3.1818e-04  7.7955e-05  1.8363e-01  1.4108e-04  1.1485e-04  1.0446e-05  0:00:35 1607
   394  1.3870e-04  3.1699e-04  7.6917e-05  1.8544e-01  1.3851e-04  1.1473e-04  1.0436e-05  0:00:28 1606
   395  1.3635e-04  3.1572e-04  7.5859e-05  1.8959e-01  1.3617e-04  1.1457e-04  1.0418e-05  0:00:22 1605
   396  1.3421e-04  3.1438e-04  7.4784e-05  1.9549e-01  1.3403e-04  1.1441e-04  1.0391e-05  0:00:18 1604

  iter  continuity  x-velocity  y-velocity  z-velocity      energy           k       omega     time/iter
   397  1.3228e-04  3.1294e-04  7.3693e-05  2.0236e-01  1.3210e-04  1.1442e-04  1.0345e-05  0:00:14 1603
   398  1.3054e-04  3.1142e-04  7.2582e-05  2.0863e-01  1.3036e-04  1.1443e-04  1.0289e-05  0:00:11 1602
   399  1.2897e-04  3.0980e-04  7.1461e-05  2.1426e-01  1.2880e-04  1.1442e-04  1.0230e-05  0:00:09 1601
   400  1.2758e-04  3.0808e-04  7.0330e-05  2.1818e-01  1.2741e-04  1.1433e-04  1.0164e-05  0:00:07 1600
   401  1.2635e-04  3.0627e-04  6.9192e-05  2.2059e-01  1.2618e-04  1.1414e-04  1.0086e-05  0:00:06 1599
   402  1.2528e-04  3.0438e-04  6.8047e-05  2.2171e-01  1.2511e-04  1.1385e-04  1.0004e-05  0:00:05 1598
   403  1.2435e-04  3.0240e-04  6.6900e-05  2.2191e-01  1.2419e-04  1.1348e-04  9.9270e-06  0:05:23 1597
   404  1.2357e-04  3.0033e-04  6.5756e-05  2.1988e-01  1.2340e-04  1.1305e-04  9.8569e-06  0:04:18 1596
   405  1.2291e-04  2.9818e-04  6.4623e-05  2.1619e-01  1.2274e-04  1.1255e-04  9.7861e-06  0:03:27 1595
   406  1.2241e-04  2.9596e-04  6.3501e-05  2.1281e-01  1.2224e-04  1.1197e-04  9.7142e-06  0:02:45 1594
   407  1.2204e-04  2.9366e-04  6.2392e-05  2.0929e-01  1.2187e-04  1.1132e-04  9.6420e-06  0:02:12 1593

  iter  continuity  x-velocity  y-velocity  z-velocity      energy           k       omega     time/iter
   408  1.2177e-04  2.9128e-04  6.1299e-05  2.0469e-01  1.2160e-04  1.1061e-04  9.5679e-06  0:01:46 1592
   409  1.2158e-04  2.8883e-04  6.0228e-05  1.9970e-01  1.2141e-04  1.0982e-04  9.4910e-06  0:01:24 1591
   410  1.2145e-04  2.8630e-04  5.9181e-05  1.9387e-01  1.2128e-04  1.0897e-04  9.4111e-06  0:01:07 1590
   411  1.2138e-04  2.8369e-04  5.8169e-05  1.8766e-01  1.2121e-04  1.0805e-04  9.3281e-06  0:00:54 1589
   412  1.2136e-04  2.8100e-04  5.7193e-05  1.8117e-01  1.2118e-04  1.0708e-04  9.2419e-06  0:00:43 1588
   413  1.2138e-04  2.7822e-04  5.6256e-05  1.7438e-01  1.2120e-04  1.0608e-04  9.1531e-06  0:00:34 1587
   414  1.2142e-04  2.7536e-04  5.5363e-05  1.6743e-01  1.2123e-04  1.0505e-04  9.0660e-06  0:00:28 1586
   415  1.2146e-04  2.7241e-04  5.4515e-05  1.6044e-01  1.2127e-04  1.0397e-04  8.9786e-06  0:00:22 1585
   416  1.2150e-04  2.6938e-04  5.3715e-05  1.5342e-01  1.2131e-04  1.0285e-04  8.8895e-06  0:00:18 1584
   417  1.2152e-04  2.6625e-04  5.2968e-05  1.4639e-01  1.2132e-04  1.0170e-04  8.7973e-06  0:00:14 1583
   418  1.2150e-04  2.6303e-04  5.2274e-05  1.3930e-01  1.2131e-04  1.0052e-04  8.7114e-06  0:00:11 1582

  iter  continuity  x-velocity  y-velocity  z-velocity      energy           k       omega     time/iter
   419  1.2144e-04  2.5972e-04  5.1634e-05  1.3194e-01  1.2124e-04  9.9300e-05  8.6116e-06  0:00:09 1581
   420  1.2132e-04  2.5633e-04  5.1050e-05  1.2464e-01  1.2112e-04  9.8040e-05  8.5084e-06  0:00:07 1580
   421  1.2113e-04  2.5284e-04  5.0521e-05  1.1743e-01  1.2092e-04  9.6777e-05  8.4023e-06  0:00:06 1579
   422  1.2085e-04  2.4926e-04  5.0045e-05  1.1036e-01  1.2064e-04  9.5505e-05  8.2941e-06  0:00:05 1578
   423  1.2051e-04  2.4559e-04  4.9622e-05  1.0358e-01  1.2030e-04  9.4206e-05  8.1859e-06  0:05:19 1577
   424  1.2007e-04  2.4185e-04  4.9250e-05  9.6578e-02  1.1985e-04  9.2869e-05  8.0773e-06  0:04:15 1576
   425  1.1956e-04  2.3802e-04  4.8925e-05  9.0596e-02  1.1934e-04  9.1486e-05  7.9656e-06  0:03:24 1575
   426  1.1892e-04  2.3411e-04  4.8648e-05  8.5650e-02  1.1870e-04  9.0051e-05  7.8508e-06  0:02:43 1574
   427  1.1811e-04  2.3011e-04  4.8415e-05  8.7016e-02  1.1789e-04  8.8619e-05  7.7333e-06  0:02:10 1573
   428  1.1714e-04  2.2603e-04  4.8222e-05  9.0466e-02  1.1691e-04  8.7182e-05  7.6143e-06  0:01:44 1572
   429  1.1601e-04  2.2186e-04  4.8063e-05  9.7472e-02  1.1578e-04  8.5716e-05  7.4937e-06  0:01:23 1571

  iter  continuity  x-velocity  y-velocity  z-velocity      energy           k       omega     time/iter
   430  1.1473e-04  2.1763e-04  4.7934e-05  1.0725e-01  1.1450e-04  8.4241e-05  7.3706e-06  0:01:07 1570
   431  1.1331e-04  2.1332e-04  4.7829e-05  1.1854e-01  1.1308e-04  8.2748e-05  7.2477e-06  0:00:53 1569
   432  1.1176e-04  2.0895e-04  4.7744e-05  1.3045e-01  1.1153e-04  8.1263e-05  7.1264e-06  0:00:43 1568
   433  1.1009e-04  2.0452e-04  4.7666e-05  1.4229e-01  1.0984e-04  7.9788e-05  7.0053e-06  0:00:34 1567
   434  1.0828e-04  2.0003e-04  4.7606e-05  1.5306e-01  1.0804e-04  7.8295e-05  6.8795e-06  0:00:27 1566
   435  1.0636e-04  1.9550e-04  4.7554e-05  1.6264e-01  1.0612e-04  7.6787e-05  6.7492e-06  0:00:22 1565
   436  1.0433e-04  1.9091e-04  4.7504e-05  1.7124e-01  1.0408e-04  7.5249e-05  6.6156e-06  0:00:17 1564
   437  1.0217e-04  1.8628e-04  4.7446e-05  1.7905e-01  1.0192e-04  7.3681e-05  6.4805e-06  0:00:14 1563
   438  9.9919e-05  1.8161e-04  4.7367e-05  1.8571e-01  9.9665e-05  7.2090e-05  6.3476e-06  0:05:24 1562
   439  9.7552e-05  1.7691e-04  4.7291e-05  1.9068e-01  9.7297e-05  7.0478e-05  6.2002e-06  0:04:19 1561
   440  9.5086e-05  1.7218e-04  4.7207e-05  1.9650e-01  9.4829e-05  6.8903e-05  6.0448e-06  0:03:27 1560

  iter  continuity  x-velocity  y-velocity  z-velocity      energy           k       omega     time/iter
   441  9.2534e-05  1.6741e-04  4.7106e-05  2.0152e-01  9.2276e-05  6.7371e-05  5.9123e-06  0:02:45 1559
   442  8.9911e-05  1.6263e-04  4.6981e-05  2.0591e-01  8.9651e-05  6.5882e-05  5.7739e-06  0:02:12 1558
   443  8.7228e-05  1.5784e-04  4.6831e-05  2.1108e-01  8.6967e-05  6.4421e-05  5.6400e-06  0:01:46 1557
   444  8.4499e-05  1.5303e-04  4.6654e-05  2.1740e-01  8.4237e-05  6.2984e-05  5.5125e-06  0:01:24 1556
   445  8.1739e-05  1.4823e-04  4.6450e-05  2.2509e-01  8.1476e-05  6.1572e-05  5.3851e-06  0:01:08 1555
   446  7.8963e-05  1.4346e-04  4.6215e-05  2.3439e-01  7.8700e-05  6.0177e-05  5.2595e-06  0:00:54 1554
   447  7.6184e-05  1.3873e-04  4.5950e-05  2.4538e-01  7.5922e-05  5.8772e-05  5.1340e-06  0:00:43 1553
   448  7.3419e-05  1.3406e-04  4.5652e-05  2.5734e-01  7.3156e-05  5.7387e-05  5.0067e-06  0:00:35 1552
   449  7.0683e-05  1.2947e-04  4.5323e-05  2.7035e-01  7.0420e-05  5.6014e-05  4.8778e-06  0:00:28 1551
   450  6.7993e-05  1.2498e-04  4.4961e-05  2.8379e-01  6.7732e-05  5.4665e-05  4.7538e-06  0:00:22 1550
   451  6.5375e-05  1.2062e-04  4.4568e-05  2.9617e-01  6.5115e-05  5.3391e-05  4.6295e-06  0:00:18 1549

  iter  continuity  x-velocity  y-velocity  z-velocity      energy           k       omega     time/iter
   452  6.2852e-05  1.1639e-04  4.4146e-05  3.0645e-01  6.2594e-05  5.2194e-05  4.5113e-06  0:00:14 1548
   453  6.0451e-05  1.1232e-04  4.3694e-05  3.1458e-01  6.0195e-05  5.1026e-05  4.3942e-06  0:00:11 1547
   454  5.8199e-05  1.0843e-04  4.3218e-05  3.1987e-01  5.7947e-05  4.9867e-05  4.2817e-06  0:00:09 1546
   455  5.6126e-05  1.0474e-04  4.2718e-05  3.2423e-01  5.5878e-05  4.8698e-05  4.1715e-06  0:00:07 1545
   456  5.4262e-05  1.0126e-04  4.2193e-05  3.2896e-01  5.4020e-05  4.7541e-05  4.0596e-06  0:00:06 1544
   457  5.2637e-05  9.8039e-05  4.1646e-05  3.3375e-01  5.2402e-05  4.6371e-05  3.9646e-06  0:00:05 1543
   458  5.1278e-05  9.5090e-05  4.1080e-05  3.3924e-01  5.1051e-05  4.5211e-05  3.8692e-06  0:00:04 1542
   459  5.0206e-05  9.2428e-05  4.0498e-05  3.4492e-01  4.9988e-05  4.4097e-05  3.7793e-06  0:00:03 1541
   460  4.9436e-05  9.0066e-05  3.9900e-05  3.5016e-01  4.9229e-05  4.2965e-05  3.6897e-06  0:00:02 1540
   461  4.8977e-05  8.8020e-05  3.9291e-05  3.5471e-01  4.8781e-05  4.1845e-05  3.5997e-06  0:05:10 1539
   462  4.8830e-05  8.6298e-05  3.8674e-05  3.5657e-01  4.8647e-05  4.0770e-05  3.5098e-06  0:04:08 1538

  iter  continuity  x-velocity  y-velocity  z-velocity      energy           k       omega     time/iter
   463  4.8987e-05  8.4906e-05  3.8050e-05  3.5669e-01  4.8816e-05  3.9732e-05  3.4256e-06  0:03:18 1537
   464  4.9433e-05  8.3845e-05  3.7424e-05  3.5622e-01  4.9275e-05  3.8837e-05  3.3563e-06  0:02:38 1536
   465  5.0144e-05  8.3108e-05  3.6798e-05  3.5503e-01  4.9999e-05  3.7957e-05  3.2987e-06  0:02:07 1535
   466  5.1095e-05  8.2685e-05  3.6175e-05  3.5222e-01  5.0962e-05  3.7117e-05  3.2443e-06  0:01:41 1534
   467  5.2256e-05  8.2561e-05  3.5557e-05  3.4705e-01  5.2134e-05  3.6281e-05  3.1928e-06  0:01:21 1533
   468  5.3593e-05  8.2716e-05  3.4947e-05  3.3972e-01  5.3483e-05  3.5431e-05  3.1446e-06  0:01:05 1532
   469  5.5073e-05  8.3129e-05  3.4347e-05  3.3017e-01  5.4973e-05  3.4603e-05  3.1052e-06  0:00:52 1531
   470  5.6662e-05  8.3773e-05  3.3759e-05  3.1867e-01  5.6570e-05  3.3887e-05  3.0836e-06  0:00:41 1530
   471  5.8326e-05  8.4623e-05  3.3185e-05  3.0547e-01  5.8242e-05  3.3269e-05  3.0675e-06  0:00:33 1529
   472  6.0033e-05  8.5650e-05  3.2625e-05  2.9112e-01  5.9956e-05  3.2723e-05  3.0540e-06  0:00:26 1528
   473  6.1756e-05  8.6826e-05  3.2082e-05  2.7645e-01  6.1685e-05  3.2214e-05  3.0444e-06  0:00:21 1527

  iter  continuity  x-velocity  y-velocity  z-velocity      energy           k       omega     time/iter
   474  6.3468e-05  8.8123e-05  3.1556e-05  2.6164e-01  6.3402e-05  3.1743e-05  3.0345e-06  0:00:17 1526
   475  6.5147e-05  8.9514e-05  3.1049e-05  2.4741e-01  6.5085e-05  3.1351e-05  3.0227e-06  0:00:13 1525
   476  6.6773e-05  9.0973e-05  3.0560e-05  2.3418e-01  6.6715e-05  3.1023e-05  3.0155e-06  0:00:11 1524
   477  6.8331e-05  9.2477e-05  3.0090e-05  2.2239e-01  6.8276e-05  3.0752e-05  3.0110e-06  0:00:09 1523
   478  6.9807e-05  9.4003e-05  2.9639e-05  2.1270e-01  6.9754e-05  3.0488e-05  3.0090e-06  0:00:07 1522
   479  7.1191e-05  9.5531e-05  2.9208e-05  2.0526e-01  7.1139e-05  3.0249e-05  3.0086e-06  0:00:06 1521
   480  7.2472e-05  9.7044e-05  2.8796e-05  1.9966e-01  7.2422e-05  3.0027e-05  3.0096e-06  0:00:04 1520
   481  7.3646e-05  9.8524e-05  2.8403e-05  1.9560e-01  7.3596e-05  2.9843e-05  3.0123e-06  0:00:04 1519
   482  7.4705e-05  9.9957e-05  2.8028e-05  1.9362e-01  7.4656e-05  2.9673e-05  3.0166e-06  0:05:06 1518
   483  7.5646e-05  1.0133e-04  2.7670e-05  1.9352e-01  7.5597e-05  2.9520e-05  3.0237e-06  0:04:05 1517
   484  7.6464e-05  1.0263e-04  2.7329e-05  1.9396e-01  7.6416e-05  2.9468e-05  3.0358e-06  0:03:16 1516

  iter  continuity  x-velocity  y-velocity  z-velocity      energy           k       omega     time/iter
   485  7.7159e-05  1.0385e-04  2.7003e-05  1.9378e-01  7.7110e-05  2.9510e-05  3.0473e-06  0:02:37 1515
   486  7.7727e-05  1.0498e-04  2.6691e-05  1.9192e-01  7.7678e-05  2.9508e-05  3.0577e-06  0:02:05 1514
   487  7.8167e-05  1.0602e-04  2.6392e-05  1.8819e-01  7.8117e-05  2.9495e-05  3.0662e-06  0:01:40 1513
   488  7.8478e-05  1.0695e-04  2.6105e-05  1.8306e-01  7.8428e-05  2.9496e-05  3.0730e-06  0:01:20 1512
   489  7.8661e-05  1.0778e-04  2.5828e-05  1.7729e-01  7.8610e-05  2.9550e-05  3.0788e-06  0:01:04 1511
   490  7.8715e-05  1.0850e-04  2.5559e-05  1.7151e-01  7.8664e-05  2.9674e-05  3.0891e-06  0:00:51 1510
   491  7.8641e-05  1.0911e-04  2.5299e-05  1.6645e-01  7.8589e-05  2.9907e-05  3.1024e-06  0:00:41 1509
   492  7.8442e-05  1.0960e-04  2.5046e-05  1.6155e-01  7.8389e-05  3.0150e-05  3.1128e-06  0:00:33 1508
   493  7.8118e-05  1.0997e-04  2.4797e-05  1.5665e-01  7.8064e-05  3.0355e-05  3.1191e-06  0:00:26 1507
   494  7.7673e-05  1.1023e-04  2.4551e-05  1.5182e-01  7.7618e-05  3.0543e-05  3.1236e-06  0:00:21 1506
   495  7.7110e-05  1.1038e-04  2.4309e-05  1.4703e-01  7.7054e-05  3.0738e-05  3.1279e-06  0:00:17 1505

  iter  continuity  x-velocity  y-velocity  z-velocity      energy           k       omega     time/iter
   496  7.6431e-05  1.1040e-04  2.4068e-05  1.4222e-01  7.6374e-05  3.1047e-05  3.1343e-06  0:00:13 1504
   497  7.5640e-05  1.1032e-04  2.3829e-05  1.3739e-01  7.5583e-05  3.1343e-05  3.1381e-06  0:00:11 1503
   498  7.4741e-05  1.1012e-04  2.3590e-05  1.3251e-01  7.4683e-05  3.1603e-05  3.1391e-06  0:00:09 1502
   499  7.3739e-05  1.0981e-04  2.3351e-05  1.2758e-01  7.3680e-05  3.1829e-05  3.1407e-06  0:00:07 1501
   500  7.2638e-05  1.0940e-04  2.3110e-05  1.2280e-01  7.2578e-05  3.2059e-05  3.1416e-06  0:00:05 1500
   501  7.1447e-05  1.0888e-04  2.2870e-05  1.1809e-01  7.1386e-05  3.2325e-05  3.1396e-06  0:00:04 1499
   502  7.0171e-05  1.0826e-04  2.2626e-05  1.1375e-01  7.0109e-05  3.2587e-05  3.1343e-06  0:05:03 1498
   503  6.8818e-05  1.0753e-04  2.2377e-05  1.0949e-01  6.8756e-05  3.2806e-05  3.1283e-06  0:04:02 1497
   504  6.7394e-05  1.0671e-04  2.2123e-05  1.0520e-01  6.7332e-05  3.3026e-05  3.1237e-06  0:03:14 1496
   505  6.5908e-05  1.0580e-04  2.1865e-05  1.0109e-01  6.5844e-05  3.3255e-05  3.1169e-06  0:02:35 1495
   506  6.4362e-05  1.0480e-04  2.1601e-05  9.7320e-02  6.4299e-05  3.3440e-05  3.1082e-06  0:02:04 1494

  iter  continuity  x-velocity  y-velocity  z-velocity      energy           k       omega     time/iter
   507  6.2763e-05  1.0372e-04  2.1331e-05  9.4017e-02  6.2699e-05  3.3583e-05  3.0979e-06  0:01:39 1493
   508  6.1108e-05  1.0255e-04  2.1056e-05  9.1229e-02  6.1044e-05  3.3694e-05  3.0853e-06  0:01:19 1492
   509  5.9412e-05  1.0131e-04  2.0775e-05  8.9007e-02  5.9347e-05  3.3813e-05  3.0718e-06  0:01:03 1491
   510  5.7686e-05  9.9993e-05  2.0488e-05  8.7376e-02  5.7622e-05  3.3911e-05  3.0567e-06  0:00:51 1490
   511  5.5937e-05  9.8604e-05  2.0196e-05  8.6357e-02  5.5872e-05  3.3966e-05  3.0408e-06  0:00:40 1489
   512  5.4169e-05  9.7148e-05  1.9899e-05  8.5920e-02  5.4104e-05  3.3975e-05  3.0241e-06  0:00:32 1488
   513  5.2387e-05  9.5631e-05  1.9596e-05  8.6009e-02  5.2322e-05  3.3941e-05  3.0047e-06  0:00:26 1487
   514  5.0597e-05  9.4056e-05  1.9288e-05  8.6557e-02  5.0532e-05  3.3887e-05  2.9785e-06  0:00:21 1486
   515  4.8805e-05  9.2429e-05  1.8973e-05  8.7495e-02  4.8740e-05  3.3806e-05  2.9535e-06  0:00:17 1485
   516  4.7017e-05  9.0754e-05  1.8654e-05  8.8794e-02  4.6952e-05  3.3678e-05  2.9277e-06  0:00:13 1484
   517  4.5238e-05  8.9035e-05  1.8329e-05  9.0392e-02  4.5174e-05  3.3529e-05  2.9000e-06  0:00:11 1483

  iter  continuity  x-velocity  y-velocity  z-velocity      energy           k       omega     time/iter
   518  4.3475e-05  8.7276e-05  1.7999e-05  9.2178e-02  4.3410e-05  3.3341e-05  2.8706e-06  0:00:08 1482
   519  4.1732e-05  8.5481e-05  1.7666e-05  9.4065e-02  4.1668e-05  3.3122e-05  2.8399e-06  0:00:07 1481
   520  4.0016e-05  8.3655e-05  1.7331e-05  9.5851e-02  3.9952e-05  3.2871e-05  2.8069e-06  0:00:05 1480
   521  3.8330e-05  8.1801e-05  1.6990e-05  9.7567e-02  3.8267e-05  3.2586e-05  2.7719e-06  0:00:04 1479
   522  3.6677e-05  7.9923e-05  1.6646e-05  9.9622e-02  3.6613e-05  3.2270e-05  2.7355e-06  0:00:03 1478
   523  3.5058e-05  7.8027e-05  1.6302e-05  1.0220e-01  3.4995e-05  3.1944e-05  2.6973e-06  0:04:58 1477
   524  3.3478e-05  7.6115e-05  1.5958e-05  1.0549e-01  3.3415e-05  3.1639e-05  2.6579e-06  0:03:58 1476
   525  3.1945e-05  7.4192e-05  1.5615e-05  1.0962e-01  3.1882e-05  3.1288e-05  2.6172e-06  0:03:11 1475
   526  3.0468e-05  7.2262e-05  1.5273e-05  1.1463e-01  3.0406e-05  3.0897e-05  2.5750e-06  0:02:32 1474
   527  2.9055e-05  7.0326e-05  1.4934e-05  1.2046e-01  2.8992e-05  3.0467e-05  2.5312e-06  0:02:02 1473
   528  2.7706e-05  6.8390e-05  1.4596e-05  1.2701e-01  2.7644e-05  3.0013e-05  2.4857e-06  0:01:37 1472

  iter  continuity  x-velocity  y-velocity  z-velocity      energy           k       omega     time/iter
   529  2.6421e-05  6.6456e-05  1.4264e-05  1.3417e-01  2.6360e-05  2.9534e-05  2.4382e-06  0:01:18 1471
   530  2.5199e-05  6.4529e-05  1.3936e-05  1.4179e-01  2.5137e-05  2.9038e-05  2.3890e-06  0:01:02 1470
   531  2.4009e-05  6.2614e-05  1.3614e-05  1.4973e-01  2.3948e-05  2.8515e-05  2.3388e-06  0:00:50 1469
   532  2.2869e-05  6.0716e-05  1.3300e-05  1.5752e-01  2.2808e-05  2.7979e-05  2.2871e-06  0:00:40 1468
   533  2.1816e-05  5.8839e-05  1.2993e-05  1.6461e-01  2.1755e-05  2.7436e-05  2.2345e-06  0:00:32 1467
   534  2.0846e-05  5.6986e-05  1.2695e-05  1.7111e-01  2.0785e-05  2.6876e-05  2.1814e-06  0:00:25 1466
   535  1.9958e-05  5.5159e-05  1.2405e-05  1.7627e-01  1.9898e-05  2.6299e-05  2.1275e-06  0:00:20 1465
   536  1.9154e-05  5.3362e-05  1.2124e-05  1.8101e-01  1.9094e-05  2.5713e-05  2.0736e-06  0:00:16 1464
   537  1.8433e-05  5.1596e-05  1.1852e-05  1.8510e-01  1.8373e-05  2.5114e-05  2.0193e-06  0:00:13 1463
   538  1.7794e-05  4.9863e-05  1.1590e-05  1.8851e-01  1.7734e-05  2.4511e-05  1.9650e-06  0:00:10 1462
   539  1.7234e-05  4.8165e-05  1.1339e-05  1.9111e-01  1.7175e-05  2.3901e-05  1.9099e-06  0:00:08 1461

  iter  continuity  x-velocity  y-velocity  z-velocity      energy           k       omega     time/iter
   540  1.6750e-05  4.6498e-05  1.1099e-05  1.9285e-01  1.6692e-05  2.3287e-05  1.8532e-06  0:00:07 1460
   541  1.6334e-05  4.4860e-05  1.0872e-05  1.9354e-01  1.6276e-05  2.2660e-05  1.7992e-06  0:00:05 1459
   542  1.5977e-05  4.3252e-05  1.0658e-05  1.9274e-01  1.5921e-05  2.2024e-05  1.7465e-06  0:00:04 1458
   543  1.5677e-05  4.1678e-05  1.0457e-05  1.9018e-01  1.5621e-05  2.1390e-05  1.6934e-06  0:00:03 1457
   544  1.5432e-05  4.0140e-05  1.0268e-05  1.8594e-01  1.5377e-05  2.0770e-05  1.6404e-06  0:00:03 1456
   545  1.5240e-05  3.8641e-05  1.0093e-05  1.8019e-01  1.5186e-05  2.0159e-05  1.5879e-06  0:04:53 1455
   546  1.5098e-05  3.7182e-05  9.9289e-06  1.7334e-01  1.5045e-05  1.9561e-05  1.5372e-06  0:03:54 1454
   547  1.4999e-05  3.5765e-05  9.7771e-06  1.6586e-01  1.4947e-05  1.8968e-05  1.4881e-06  0:03:07 1453
   548  1.4933e-05  3.4391e-05  9.6370e-06  1.5825e-01  1.4882e-05  1.8380e-05  1.4412e-06  0:02:30 1452
   549  1.4889e-05  3.3062e-05  9.5082e-06  1.5095e-01  1.4838e-05  1.7797e-05  1.3952e-06  0:02:00 1451
   550  1.4867e-05  3.1779e-05  9.3905e-06  1.4420e-01  1.4817e-05  1.7221e-05  1.3501e-06  0:01:36 1450

  iter  continuity  x-velocity  y-velocity  z-velocity      energy           k       omega     time/iter
   551  1.4858e-05  3.0543e-05  9.2833e-06  1.3796e-01  1.4809e-05  1.6659e-05  1.3064e-06  0:01:17 1449
   552  1.4855e-05  2.9356e-05  9.1863e-06  1.3176e-01  1.4807e-05  1.6111e-05  1.2633e-06  0:01:01 1448
   553  1.4853e-05  2.8218e-05  9.0991e-06  1.2390e-01  1.4805e-05  1.5597e-05  1.2215e-06  0:00:49 1447
   554  1.4848e-05  2.7131e-05  9.0208e-06  1.1739e-01  1.4801e-05  1.5092e-05  1.1808e-06  0:00:39 1446
   555  1.4838e-05  2.6094e-05  8.9511e-06  1.1238e-01  1.4791e-05  1.4599e-05  1.1410e-06  0:00:31 1445
   556  1.4819e-05  2.5110e-05  8.8894e-06  1.0833e-01  1.4773e-05  1.4117e-05  1.1030e-06  0:00:25 1444
   557  1.4792e-05  2.4179e-05  8.8348e-06  1.0494e-01  1.4746e-05  1.3662e-05  1.0669e-06  0:00:20 1443
   558  1.4754e-05  2.3302e-05  8.7868e-06  1.0201e-01  1.4709e-05  1.3221e-05  1.0318e-06  0:00:16 1442
   559  1.4707e-05  2.2479e-05  8.7444e-06  9.9388e-02  1.4662e-05  1.2793e-05  9.9764e-07  0:00:13 1441
   560  1.4649e-05  2.1712e-05  8.7069e-06  9.6935e-02  1.4605e-05  1.2376e-05  9.6458e-07  0:00:10 1440
   561  1.4581e-05  2.1001e-05  8.6735e-06  9.4636e-02  1.4538e-05  1.1970e-05  9.3260e-07  0:00:08 1439

  iter  continuity  x-velocity  y-velocity  z-velocity      energy           k       omega     time/iter
   562  1.4503e-05  2.0348e-05  8.6433e-06  9.2321e-02  1.4460e-05  1.1576e-05  9.0218e-07  0:00:07 1438
   563  1.4414e-05  1.9753e-05  8.6156e-06  8.9937e-02  1.4371e-05  1.1200e-05  8.7302e-07  0:00:05 1437
   564  1.4316e-05  1.9217e-05  8.5896e-06  8.7468e-02  1.4274e-05  1.0848e-05  8.4541e-07  0:00:04 1436
   565  1.4208e-05  1.8740e-05  8.5647e-06  8.4905e-02  1.4167e-05  1.0504e-05  8.1965e-07  0:00:03 1435
   566  1.4093e-05  1.8323e-05  8.5401e-06  8.2273e-02  1.4051e-05  1.0167e-05  7.9542e-07  0:00:03 1434
   567  1.3970e-05  1.7966e-05  8.5153e-06  7.9539e-02  1.3929e-05  9.8498e-06  7.7235e-07  0:00:02 1433
   568  1.3841e-05  1.7667e-05  8.4897e-06  7.6730e-02  1.3801e-05  9.5422e-06  7.5036e-07  0:04:48 1432
   569  1.3709e-05  1.7426e-05  8.4629e-06  7.3906e-02  1.3670e-05  9.2439e-06  7.2958e-07  0:03:50 1431
   570  1.3574e-05  1.7242e-05  8.4344e-06  7.1096e-02  1.3535e-05  8.9594e-06  7.1074e-07  0:03:04 1430
   571  1.3438e-05  1.7112e-05  8.4039e-06  6.8323e-02  1.3400e-05  8.6851e-06  6.9440e-07  0:02:27 1429
   572  1.3302e-05  1.7034e-05  8.3711e-06  6.5621e-02  1.3265e-05  8.4292e-06  6.7941e-07  0:01:58 1428

  iter  continuity  x-velocity  y-velocity  z-velocity      energy           k       omega     time/iter
   573  1.3169e-05  1.7006e-05  8.3356e-06  6.3031e-02  1.3132e-05  8.1819e-06  6.6519e-07  0:01:34 1427
   574  1.3039e-05  1.7023e-05  8.2972e-06  6.0589e-02  1.3004e-05  7.9512e-06  6.5247e-07  0:01:15 1426
   575  1.2915e-05  1.7084e-05  8.2558e-06  5.8321e-02  1.2880e-05  7.7502e-06  6.4129e-07  0:01:00 1425
   576  1.2797e-05  1.7184e-05  8.2112e-06  5.6243e-02  1.2763e-05  7.5913e-06  6.3195e-07  0:00:48 1424
   577  1.2686e-05  1.7319e-05  8.1633e-06  5.4366e-02  1.2653e-05  7.4483e-06  6.2550e-07  0:00:38 1423
   578  1.2584e-05  1.7487e-05  8.1121e-06  5.2691e-02  1.2552e-05  7.3118e-06  6.2080e-07  0:00:31 1422
   579  1.2491e-05  1.7684e-05  8.0574e-06  5.1213e-02  1.2460e-05  7.1845e-06  6.1638e-07  0:00:25 1421
   580  1.2409e-05  1.7906e-05  7.9993e-06  4.9818e-02  1.2379e-05  7.0645e-06  6.1214e-07  0:00:20 1420
   581  1.2338e-05  1.8151e-05  7.9377e-06  4.8589e-02  1.2309e-05  6.9456e-06  6.0813e-07  0:00:16 1419
   582  1.2278e-05  1.8415e-05  7.8728e-06  4.7533e-02  1.2250e-05  6.8350e-06  6.0459e-07  0:00:13 1418
   583  1.2231e-05  1.8695e-05  7.8045e-06  4.6644e-02  1.2204e-05  6.7293e-06  6.0182e-07  0:00:10 1417

  iter  continuity  x-velocity  y-velocity  z-velocity      energy           k       omega     time/iter
   584  1.2196e-05  1.8988e-05  7.7331e-06  4.5913e-02  1.2171e-05  6.6277e-06  5.9978e-07  0:00:08 1416
   585  1.2175e-05  1.9293e-05  7.6586e-06  4.5329e-02  1.2150e-05  6.5398e-06  5.9882e-07  0:00:06 1415
   586  1.2167e-05  1.9605e-05  7.5812e-06  4.4875e-02  1.2143e-05  6.4592e-06  5.9875e-07  0:00:05 1414
   587  1.2172e-05  1.9924e-05  7.5010e-06  4.4535e-02  1.2149e-05  6.3860e-06  5.9918e-07  0:00:04 1413
   588  1.2190e-05  2.0247e-05  7.4183e-06  4.4291e-02  1.2168e-05  6.3276e-06  6.0025e-07  0:00:03 1412
   589  1.2221e-05  2.0572e-05  7.3334e-06  4.4119e-02  1.2201e-05  6.3049e-06  6.0212e-07  0:04:45 1411
   590  1.2265e-05  2.0897e-05  7.2464e-06  4.4016e-02  1.2245e-05  6.2954e-06  6.0585e-07  0:03:48 1410
   591  1.2321e-05  2.1221e-05  7.1577e-06  4.3962e-02  1.2303e-05  6.2910e-06  6.0986e-07  0:03:02 1409
   592  1.2389e-05  2.1541e-05  7.0675e-06  4.3941e-02  1.2371e-05  6.2956e-06  6.1377e-07  0:02:26 1408
   593  1.2468e-05  2.1857e-05  6.9762e-06  4.3943e-02  1.2451e-05  6.3028e-06  6.1765e-07  0:01:56 1407
   594  1.2557e-05  2.2167e-05  6.8841e-06  4.3954e-02  1.2541e-05  6.3078e-06  6.2176e-07  0:01:33 1406

  iter  continuity  x-velocity  y-velocity  z-velocity      energy           k       omega     time/iter
   595  1.2655e-05  2.2469e-05  6.7916e-06  4.3961e-02  1.2639e-05  6.3147e-06  6.2619e-07  0:01:14 1405
   596  1.2761e-05  2.2762e-05  6.6990e-06  4.3956e-02  1.2746e-05  6.3440e-06  6.3165e-07  0:00:59 1404
   597  1.2873e-05  2.3046e-05  6.6066e-06  4.3929e-02  1.2859e-05  6.3820e-06  6.3841e-07  0:00:48 1403
   598  1.2991e-05  2.3318e-05  6.5148e-06  4.3870e-02  1.2977e-05  6.4216e-06  6.4513e-07  0:00:38 1402
   599  1.3113e-05  2.3579e-05  6.4239e-06  4.3764e-02  1.3099e-05  6.4643e-06  6.5180e-07  0:00:30 1401
   600  1.3237e-05  2.3826e-05  6.3343e-06  4.3622e-02  1.3224e-05  6.5045e-06  6.5859e-07  0:00:24 1400
   601  1.3363e-05  2.4060e-05  6.2463e-06  4.0482e-02  1.3350e-05  6.5522e-06  6.6517e-07  0:00:19 1399
   602  1.3488e-05  2.4279e-05  6.1600e-06  3.9233e-02  1.3476e-05  6.6090e-06  6.7195e-07  0:00:16 1398
   603  1.3614e-05  2.4482e-05  6.0759e-06  3.8343e-02  1.3601e-05  6.6615e-06  6.7906e-07  0:00:12 1397
   604  1.3735e-05  2.4670e-05  5.9940e-06  3.7445e-02  1.3722e-05  6.7102e-06  6.8602e-07  0:00:10 1396
   605  1.3851e-05  2.4840e-05  5.9146e-06  3.6496e-02  1.3838e-05  6.7554e-06  6.9250e-07  0:00:08 1395

  iter  continuity  x-velocity  y-velocity  z-velocity      energy           k       omega     time/iter
   606  1.3960e-05  2.4992e-05  5.8380e-06  3.5493e-02  1.3948e-05  6.8172e-06  6.9902e-07  0:00:06 1394
   607  1.4062e-05  2.5127e-05  5.7640e-06  3.4434e-02  1.4049e-05  6.8762e-06  7.0547e-07  0:00:05 1393
   608  1.4155e-05  2.5242e-05  5.6929e-06  3.3330e-02  1.4142e-05  6.9321e-06  7.1139e-07  0:00:04 1392
   609  1.4238e-05  2.5338e-05  5.6247e-06  3.2198e-02  1.4226e-05  6.9839e-06  7.1702e-07  0:00:03 1391
   610  1.4311e-05  2.5415e-05  5.5593e-06  3.1038e-02  1.4299e-05  7.0422e-06  7.2243e-07  0:04:41 1390
   611  1.4373e-05  2.5471e-05  5.4967e-06  2.9868e-02  1.4360e-05  7.0984e-06  7.2750e-07  0:03:44 1389
   612  1.4423e-05  2.5507e-05  5.4368e-06  2.8717e-02  1.4410e-05  7.1560e-06  7.3211e-07  0:02:59 1388
   613  1.4459e-05  2.5523e-05  5.3796e-06  2.7579e-02  1.4446e-05  7.2145e-06  7.3598e-07  0:02:23 1387
   614  1.4482e-05  2.5517e-05  5.3248e-06  2.6455e-02  1.4468e-05  7.2742e-06  7.3933e-07  0:01:55 1386
   615  1.4490e-05  2.5490e-05  5.2726e-06  2.5352e-02  1.4476e-05  7.3326e-06  7.4217e-07  0:01:32 1385
   616  1.4482e-05  2.5442e-05  5.2226e-06  2.4278e-02  1.4468e-05  7.3867e-06  7.4453e-07  0:01:13 1384

  iter  continuity  x-velocity  y-velocity  z-velocity      energy           k       omega     time/iter
   617  1.4460e-05  2.5373e-05  5.1747e-06  2.3256e-02  1.4445e-05  7.4355e-06  7.4618e-07  0:00:59 1383
   618  1.4421e-05  2.5283e-05  5.1288e-06  2.2311e-02  1.4407e-05  7.4805e-06  7.4717e-07  0:00:47 1382
   619  1.4366e-05  2.5172e-05  5.0846e-06  2.1466e-02  1.4351e-05  7.5236e-06  7.4766e-07  0:00:37 1381
   620  1.4295e-05  2.5039e-05  5.0419e-06  2.0718e-02  1.4280e-05  7.5620e-06  7.4751e-07  0:00:30 1380
   621  1.4207e-05  2.4886e-05  5.0005e-06  2.0087e-02  1.4191e-05  7.5967e-06  7.4677e-07  0:00:24 1379
   622  1.4101e-05  2.4713e-05  4.9601e-06  1.9608e-02  1.4086e-05  7.6246e-06  7.4549e-07  0:00:19 1378
   623  1.3978e-05  2.4519e-05  4.9205e-06  1.9301e-02  1.3962e-05  7.6459e-06  7.4382e-07  0:00:15 1377
   624  1.3837e-05  2.4305e-05  4.8815e-06  1.9187e-02  1.3821e-05  7.6615e-06  7.4145e-07  0:00:12 1376
[...]
  1838  2.6607e-12  5.9176e-12  1.6192e-12  1.8293e-08  2.6516e-12  2.7579e-12  2.2754e-13  0:00:01  162
  1839  2.5760e-12  5.7118e-12  1.5979e-12  1.8245e-08  2.5669e-12  2.6916e-12  2.2144e-13  0:00:33  161
  1840  2.4958e-12  5.5092e-12  1.5771e-12  1.8184e-08  2.4867e-12  2.6257e-12  2.1542e-13  0:00:26  160
  1841  2.4204e-12  5.3103e-12  1.5568e-12  1.8108e-08  2.4114e-12  2.5598e-12  2.0961e-13  0:00:21  159
  1842  2.3500e-12  5.1155e-12  1.5367e-12  1.8018e-08  2.3411e-12  2.4942e-12  2.0393e-13  0:00:17  158
  1843  2.2846e-12  4.9250e-12  1.5171e-12  1.7915e-08  2.2758e-12  2.4275e-12  1.9798e-13  0:00:13  157
  1844  2.2245e-12  4.7394e-12  1.4980e-12  1.7798e-08  2.2157e-12  2.3613e-12  1.9185e-13  0:00:10  156
  1845  2.1696e-12  4.5589e-12  1.4791e-12  1.7669e-08  2.1610e-12  2.2968e-12  1.8609e-13  0:00:08  155
  1846  2.1201e-12  4.3841e-12  1.4607e-12  1.7527e-08  2.1116e-12  2.2332e-12  1.8040e-13  0:00:07  154
  1847  2.0760e-12  4.2152e-12  1.4427e-12  1.7374e-08  2.0677e-12  2.1711e-12  1.7515e-13  0:00:05  153
  1848  2.0372e-12  4.0529e-12  1.4251e-12  1.7208e-08  2.0291e-12  2.1094e-12  1.6985e-13  0:00:04  152

  iter  continuity  x-velocity  y-velocity  z-velocity      energy           k       omega     time/iter
  1849  2.0037e-12  3.8976e-12  1.4078e-12  1.7030e-08  1.9957e-12  2.0498e-12  1.6510e-13  0:00:03  151
  1850  1.9752e-12  3.7495e-12  1.3909e-12  1.6843e-08  1.9675e-12  1.9899e-12  1.6013e-13  0:00:03  150
  1851  1.9519e-12  3.6094e-12  1.3745e-12  1.6645e-08  1.9444e-12  1.9309e-12  1.5481e-13  0:00:02  149
  1852  1.9333e-12  3.4777e-12  1.3583e-12  1.6438e-08  1.9260e-12  1.8737e-12  1.5022e-13  0:00:02  148
  1853  1.9191e-12  3.3547e-12  1.3424e-12  1.6221e-08  1.9122e-12  1.8176e-12  1.4558e-13  0:00:01  147
  1854  1.9093e-12  3.2410e-12  1.3271e-12  1.5997e-08  1.9025e-12  1.7636e-12  1.4143e-13  0:00:01  146
  1855  1.9033e-12  3.1370e-12  1.3118e-12  1.5764e-08  1.8968e-12  1.7122e-12  1.3729e-13  0:00:30  145
  1856  1.9010e-12  3.0429e-12  1.2969e-12  1.5524e-08  1.8948e-12  1.6606e-12  1.3296e-13  0:00:24  144
  1857  1.9021e-12  2.9591e-12  1.2824e-12  1.5274e-08  1.8961e-12  1.6105e-12  1.2919e-13  0:00:19  143
  1858  1.9060e-12  2.8858e-12  1.2680e-12  1.5017e-08  1.9003e-12  1.5622e-12  1.2560e-13  0:00:15  142
  1859  1.9125e-12  2.8231e-12  1.2539e-12  1.4756e-08  1.9071e-12  1.5137e-12  1.2123e-13  0:00:12  141

  iter  continuity  x-velocity  y-velocity  z-velocity      energy           k       omega     time/iter
  1860  1.9214e-12  2.7710e-12  1.2401e-12  1.4489e-08  1.9162e-12  1.4686e-12  1.1830e-13  0:00:09  140
  1861  1.9321e-12  2.7293e-12  1.2265e-12  1.4216e-08  1.9271e-12  1.4241e-12  1.1513e-13  0:00:07  139
  1862  1.9444e-12  2.6978e-12  1.2132e-12  1.3939e-08  1.9397e-12  1.3826e-12  1.1263e-13  0:00:06  138
  1863  1.9580e-12  2.6761e-12  1.2000e-12  1.3658e-08  1.9535e-12  1.3433e-12  1.1045e-13  0:00:05  137
  1864  1.9727e-12  2.6638e-12  1.1870e-12  1.3375e-08  1.9684e-12  1.3037e-12  1.0810e-13  0:00:04  136
  1865  1.9881e-12  2.6601e-12  1.1744e-12  1.3087e-08  1.9840e-12  1.2661e-12  1.0590e-13  0:00:03  135
  1866  2.0040e-12  2.6647e-12  1.1618e-12  1.2794e-08  2.0001e-12  1.2316e-12  1.0389e-13  0:00:02  134
  1867  2.0201e-12  2.6764e-12  1.1495e-12  1.2502e-08  2.0164e-12  1.2028e-12  1.0268e-13  0:00:02  133
  1868  2.0364e-12  2.6947e-12  1.1372e-12  1.2205e-08  2.0328e-12  1.1791e-12  1.0158e-13  0:00:01  132
  1869  2.0524e-12  2.7187e-12  1.1252e-12  1.1908e-08  2.0490e-12  1.1589e-12  1.0022e-13  0:00:01  131
  1870  2.0683e-12  2.7475e-12  1.1134e-12  1.1609e-08  2.0650e-12  1.1399e-12  9.9187e-14  0:00:27  130

  iter  continuity  x-velocity  y-velocity  z-velocity      energy           k       omega     time/iter
  1871  2.0836e-12  2.7804e-12  1.1016e-12  1.1309e-08  2.0805e-12  1.1215e-12  9.8491e-14  0:00:21  129
  1872  2.0985e-12  2.8168e-12  1.0899e-12  1.1009e-08  2.0955e-12  1.1024e-12  9.7391e-14  0:00:17  128
  1873  2.1126e-12  2.8558e-12  1.0783e-12  1.0710e-08  2.1098e-12  1.0835e-12  9.6573e-14  0:00:13  127
  1874  2.1260e-12  2.8967e-12  1.0668e-12  1.0411e-08  2.1232e-12  1.0659e-12  9.6025e-14  0:00:11  126
  1875  2.1385e-12  2.9390e-12  1.0554e-12  1.0111e-08  2.1358e-12  1.0497e-12  9.5681e-14  0:00:08  125
  1876  2.1500e-12  2.9823e-12  1.0439e-12  9.8120e-09  2.1474e-12  1.0339e-12  9.5358e-14  0:00:07  124
  1877  2.1606e-12  3.0259e-12  1.0326e-12  9.5147e-09  2.1581e-12  1.0190e-12  9.5116e-14  0:00:05  123
  1878  2.1700e-12  3.0693e-12  1.0214e-12  9.2187e-09  2.1676e-12  1.0050e-12  9.4837e-14  0:00:04  122
  1879  2.1783e-12  3.1123e-12  1.0103e-12  8.9243e-09  2.1759e-12  9.9341e-13  9.4795e-14  0:00:03  121
  1880  2.1853e-12  3.1546e-12  9.9917e-13  8.6336e-09  2.1830e-12  9.8984e-13  9.4904e-14  0:00:03  120
  1881  2.1911e-12  3.1957e-12  9.8839e-13  8.3448e-09  2.1889e-12  9.8765e-13  9.5198e-14  0:00:02  119

  iter  continuity  x-velocity  y-velocity  z-velocity      energy           k       omega     time/iter
  1882  2.1955e-12  3.2356e-12  9.7741e-13  8.0595e-09  2.1934e-12  9.8434e-13  9.5076e-14  0:00:02  118
  1883  2.1987e-12  3.2738e-12  9.6659e-13  7.7735e-09  2.1966e-12  9.8248e-13  9.5379e-14  0:00:01  117
  1884  2.2006e-12  3.3102e-12  9.5598e-13  7.4964e-09  2.1985e-12  9.8258e-13  9.5519e-14  0:00:01  116
  1885  2.2011e-12  3.3447e-12  9.4525e-13  7.2237e-09  2.1990e-12  9.8375e-13  9.5707e-14  0:00:01  115
  1886  2.2003e-12  3.3772e-12  9.3477e-13  6.9538e-09  2.1983e-12  9.8574e-13  9.6319e-14  0:00:23  114
  1887  2.1982e-12  3.4074e-12  9.2420e-13  6.6898e-09  2.1962e-12  9.9166e-13  9.6607e-14  0:00:19  113
  1888  2.1948e-12  3.4353e-12  9.1373e-13  6.4322e-09  2.1928e-12  9.9818e-13  9.7379e-14  0:00:15  112
  1889  2.1901e-12  3.4609e-12  9.0332e-13  6.1803e-09  2.1881e-12  1.0034e-12  9.7628e-14  0:00:12  111
  1890  2.1841e-12  3.4839e-12  8.9293e-13  5.9352e-09  2.1822e-12  1.0087e-12  9.8231e-14  0:00:09  110
  1891  2.1770e-12  3.5044e-12  8.8262e-13  5.6957e-09  2.1750e-12  1.0136e-12  9.8379e-14  0:00:07  109
  1892  2.1685e-12  3.5223e-12  8.7231e-13  5.4651e-09  2.1666e-12  1.0218e-12  9.8926e-14  0:00:06  108

  iter  continuity  x-velocity  y-velocity  z-velocity      energy           k       omega     time/iter
  1893  2.1589e-12  3.5376e-12  8.6206e-13  5.2431e-09  2.1570e-12  1.0300e-12  9.9542e-14  0:00:05  107
  1894  2.1481e-12  3.5502e-12  8.5185e-13  5.0306e-09  2.1462e-12  1.0377e-12  1.0031e-13  0:00:04  106
  1895  2.1361e-12  3.5602e-12  8.4173e-13  4.8265e-09  2.1341e-12  1.0442e-12  1.0072e-13  0:00:03  105
  1896  2.1229e-12  3.5675e-12  8.3163e-13  4.6352e-09  2.1209e-12  1.0507e-12  1.0111e-13  0:00:02  104
  1897  2.1085e-12  3.5721e-12  8.2163e-13  4.4539e-09  2.1066e-12  1.0596e-12  1.0181e-13  0:00:02  103
  1898  2.0930e-12  3.5740e-12  8.1171e-13  4.2848e-09  2.0910e-12  1.0667e-12  1.0192e-13  0:00:01  102
  1899  2.0763e-12  3.5732e-12  8.0181e-13  4.1261e-09  2.0744e-12  1.0727e-12  1.0208e-13  0:00:01  101
  1900  2.0586e-12  3.5698e-12  7.9202e-13  3.9834e-09  2.0566e-12  1.0800e-12  1.0280e-13  0:00:01  100
  1901  2.0397e-12  3.5638e-12  7.8234e-13  3.8522e-09  2.0378e-12  1.0863e-12  1.0280e-13  0:00:01   99
  1902  2.0198e-12  3.5552e-12  7.7270e-13  3.7320e-09  2.0178e-12  1.0923e-12  1.0336e-13  0:00:01   98
  1903  1.9989e-12  3.5440e-12  7.6319e-13  3.6304e-09  1.9969e-12  1.0971e-12  1.0338e-13  0:00:00   97

  iter  continuity  x-velocity  y-velocity  z-velocity      energy           k       omega     time/iter
  1904  1.9769e-12  3.5304e-12  7.5373e-13  3.5448e-09  1.9750e-12  1.1022e-12  1.0358e-13  0:00:20   96
  1905  1.9540e-12  3.5142e-12  7.4429e-13  3.4732e-09  1.9520e-12  1.1076e-12  1.0375e-13  0:00:15   95
  1906  1.9302e-12  3.4957e-12  7.3499e-13  3.4179e-09  1.9282e-12  1.1121e-12  1.0380e-13  0:00:12   94
  1907  1.9055e-12  3.4748e-12  7.2576e-13  3.3743e-09  1.9035e-12  1.1161e-12  1.0396e-13  0:00:10   93
  1908  1.8799e-12  3.4516e-12  7.1665e-13  3.3443e-09  1.8779e-12  1.1186e-12  1.0361e-13  0:00:08   92
  1909  1.8536e-12  3.4261e-12  7.0757e-13  3.3283e-09  1.8515e-12  1.1200e-12  1.0305e-13  0:00:06   91
  1910  1.8265e-12  3.3985e-12  6.9859e-13  3.3208e-09  1.8244e-12  1.1215e-12  1.0270e-13  0:00:05   90
  1911  1.7987e-12  3.3689e-12  6.8969e-13  3.3281e-09  1.7966e-12  1.1231e-12  1.0231e-13  0:00:04   89
  1912  1.7702e-12  3.3372e-12  6.8087e-13  3.3457e-09  1.7681e-12  1.1239e-12  1.0199e-13  0:00:03   88
  1913  1.7410e-12  3.3035e-12  6.7209e-13  3.3739e-09  1.7389e-12  1.1236e-12  1.0157e-13  0:00:02   87
  1914  1.7113e-12  3.2679e-12  6.6341e-13  3.4091e-09  1.7092e-12  1.1221e-12  1.0104e-13  0:00:02   86

  iter  continuity  x-velocity  y-velocity  z-velocity      energy           k       omega     time/iter
  1915  1.6810e-12  3.2305e-12  6.5480e-13  3.4535e-09  1.6789e-12  1.1196e-12  1.0029e-13  0:00:01   85
  1916  1.6503e-12  3.1914e-12  6.4626e-13  3.5028e-09  1.6481e-12  1.1169e-12  9.9651e-14  0:00:01   84
  1917  1.6191e-12  3.1505e-12  6.3783e-13  3.5592e-09  1.6169e-12  1.1127e-12  9.8675e-14  0:00:01   83
  1918  1.5875e-12  3.1081e-12  6.2945e-13  3.6190e-09  1.5853e-12  1.1081e-12  9.7918e-14  0:00:01   82
  1919  1.5555e-12  3.0641e-12  6.2119e-13  3.6824e-09  1.5533e-12  1.1031e-12  9.7431e-14  0:00:01   81
  1920  1.5232e-12  3.0187e-12  6.1303e-13  3.7492e-09  1.5210e-12  1.0966e-12  9.6545e-14  0:00:16   80
  1921  1.4906e-12  2.9718e-12  6.0495e-13  3.8162e-09  1.4884e-12  1.0898e-12  9.5872e-14  0:00:13   79
  1922  1.4578e-12  2.9236e-12  5.9697e-13  3.8838e-09  1.4555e-12  1.0814e-12  9.4682e-14  0:00:10   78
  1923  1.4247e-12  2.8742e-12  5.8910e-13  3.9514e-09  1.4224e-12  1.0729e-12  9.3836e-14  0:00:08   77
  1924  1.3915e-12  2.8236e-12  5.8132e-13  4.0199e-09  1.3892e-12  1.0635e-12  9.2840e-14  0:00:06   76
  1925  1.3581e-12  2.7719e-12  5.7367e-13  4.0870e-09  1.3558e-12  1.0526e-12  9.1274e-14  0:00:05   75

  iter  continuity  x-velocity  y-velocity  z-velocity      energy           k       omega     time/iter
  1926  1.3247e-12  2.7192e-12  5.6612e-13  4.1498e-09  1.3223e-12  1.0422e-12  9.0402e-14  0:00:04   74
  1927  1.2912e-12  2.6655e-12  5.5871e-13  4.2121e-09  1.2888e-12  1.0304e-12  8.9009e-14  0:00:03   73
  1928  1.2577e-12  2.6110e-12  5.5141e-13  4.2731e-09  1.2553e-12  1.0185e-12  8.7905e-14  0:00:02   72
  1929  1.2242e-12  2.5557e-12  5.4420e-13  4.3302e-09  1.2219e-12  1.0058e-12  8.6467e-14  0:00:02   71
  1930  1.1910e-12  2.4998e-12  5.3712e-13  4.3846e-09  1.1886e-12  9.9273e-13  8.5295e-14  0:00:02   70
  1931  1.1578e-12  2.4433e-12  5.3011e-13  4.4377e-09  1.1554e-12  9.7970e-13  8.4484e-14  0:00:01   69
  1932  1.1249e-12  2.3863e-12  5.2321e-13  4.4885e-09  1.1225e-12  9.6507e-13  8.2765e-14  0:00:01   68
  1933  1.0923e-12  2.3288e-12  5.1645e-13  4.5341e-09  1.0899e-12  9.5008e-13  8.1219e-14  0:00:01   67
  1934  1.0601e-12  2.2711e-12  5.0980e-13  4.5774e-09  1.0576e-12  9.3486e-13  7.9790e-14  0:00:01   66
  1935  1.0282e-12  2.2130e-12  5.0318e-13  4.6148e-09  1.0258e-12  9.1923e-13  7.8268e-14  0:00:00   65
  1936  9.9677e-13  2.1549e-12  4.9666e-13  4.6495e-09  9.9433e-13  9.0296e-13  7.6524e-14  0:00:00   64

  iter  continuity  x-velocity  y-velocity  z-velocity      energy           k       omega     time/iter
  1937  9.6586e-13  2.0966e-12  4.9024e-13  4.6816e-09  9.6339e-13  8.8713e-13  7.5214e-14  0:00:13   63
  1938  9.3545e-13  2.0383e-12  4.8390e-13  4.7098e-09  9.3297e-13  8.7040e-13  7.3462e-14  0:00:10   62
  1939  9.0568e-13  1.9800e-12  4.7773e-13  4.7336e-09  9.0319e-13  8.5375e-13  7.1901e-14  0:00:08   61
  1940  8.7658e-13  1.9219e-12  4.7152e-13  4.7536e-09  8.7408e-13  8.3695e-13  7.0367e-14  0:00:06   60
  1941  8.4816e-13  1.8641e-12  4.6551e-13  4.7703e-09  8.4567e-13  8.1931e-13  6.8444e-14  0:00:05   59
  1942  8.2052e-13  1.8067e-12  4.5948e-13  4.7826e-09  8.1801e-13  8.0240e-13  6.7123e-14  0:00:04   58
  1943  7.9378e-13  1.7495e-12  4.5378e-13  4.7915e-09  7.9131e-13  7.8512e-13  6.5572e-14  0:00:03   57
  1944  7.6786e-13  1.6929e-12  4.4793e-13  4.7982e-09  7.6538e-13  7.6789e-13  6.4075e-14  0:00:02   56
  1945  7.4298e-13  1.6369e-12  4.4223e-13  4.7978e-09  7.4050e-13  7.5029e-13  6.2294e-14  0:00:02   55
  1946  7.1913e-13  1.5816e-12  4.3668e-13  4.7944e-09  7.1663e-13  7.3289e-13  6.0723e-14  0:00:01   54
  1947  6.9636e-13  1.5270e-12  4.3119e-13  4.7849e-09  6.9384e-13  7.1535e-13  5.9031e-14  0:00:01   53

  iter  continuity  x-velocity  y-velocity  z-velocity      energy           k       omega     time/iter
  1948  6.7474e-13  1.4733e-12  4.2585e-13  4.7733e-09  6.7228e-13  6.9808e-13  5.7481e-14  0:00:01   52
  1949  6.5430e-13  1.4205e-12  4.2046e-13  4.7588e-09  6.5185e-13  6.8067e-13  5.5862e-14  0:00:01   51
  1950  6.3514e-13  1.3688e-12  4.1533e-13  4.7397e-09  6.3271e-13  6.6320e-13  5.4266e-14  0:00:01   50
  1951  6.1732e-13  1.3182e-12  4.1016e-13  4.7193e-09  6.1488e-13  6.4558e-13  5.2637e-14  0:00:00   49
  1952  6.0086e-13  1.2688e-12  4.0512e-13  4.6961e-09  5.9849e-13  6.2837e-13  5.1150e-14  0:00:10   48
  1953  5.8575e-13  1.2209e-12  4.0002e-13  4.6684e-09  5.8342e-13  6.1201e-13  4.9968e-14  0:00:08   47
  1954  5.7206e-13  1.1743e-12  3.9525e-13  4.6384e-09  5.6979e-13  5.9540e-13  4.8505e-14  0:00:06   46
  1955  5.5988e-13  1.1294e-12  3.9041e-13  4.6037e-09  5.5766e-13  5.7897e-13  4.7122e-14  0:00:05   45
  1956  5.4908e-13  1.0862e-12  3.8560e-13  4.5655e-09  5.4690e-13  5.6247e-13  4.5532e-14  0:00:04   44
  1957  5.3978e-13  1.0449e-12  3.8088e-13  4.5253e-09  5.3766e-13  5.4646e-13  4.4183e-14  0:00:03   43
  1958  5.3192e-13  1.0054e-12  3.7634e-13  4.4831e-09  5.2985e-13  5.3057e-13  4.2798e-14  0:00:02   42

  iter  continuity  x-velocity  y-velocity  z-velocity      energy           k       omega     time/iter
  1959  5.2551e-13  9.6823e-13  3.7173e-13  4.4383e-09  5.2347e-13  5.1502e-13  4.1436e-14  0:00:02   41
  1960  5.2043e-13  9.3318e-13  3.6724e-13  4.3918e-09  5.1850e-13  5.0001e-13  4.0278e-14  0:00:01   40
  1961  5.1660e-13  9.0053e-13  3.6276e-13  4.3436e-09  5.1473e-13  4.8531e-13  3.9259e-14  0:00:01   39
  1962  5.1427e-13  8.7097e-13  3.5843e-13  4.2869e-09  5.1251e-13  4.7088e-13  3.7895e-14  0:00:01   38
  1963  5.1284e-13  8.4326e-13  3.5417e-13  4.2358e-09  5.1114e-13  4.5736e-13  3.6893e-14  0:00:01   37
  1964  5.1269e-13  8.1885e-13  3.5006e-13  4.1764e-09  5.1103e-13  4.4376e-13  3.5797e-14  0:00:01   36
  1965  5.1307e-13  7.9665e-13  3.4588e-13  4.1203e-09  5.1153e-13  4.3014e-13  3.4681e-14  0:00:00   35
  1966  5.1472e-13  7.7779e-13  3.4206e-13  4.0546e-09  5.1321e-13  4.1711e-13  3.3606e-14  0:00:00   34
  1967  5.1712e-13  7.6193e-13  3.3814e-13  3.9894e-09  5.1564e-13  4.0476e-13  3.2821e-14  0:00:00   33
  1968  5.2014e-13  7.4884e-13  3.3437e-13  3.9252e-09  5.1879e-13  3.9238e-13  3.1810e-14  0:00:00   32
  1969  5.2372e-13  7.3862e-13  3.3060e-13  3.8577e-09  5.2241e-13  3.8051e-13  3.0890e-14  0:00:00   31

  iter  continuity  x-velocity  y-velocity  z-velocity      energy           k       omega     time/iter
  1970  5.2780e-13  7.3113e-13  3.2707e-13  3.7894e-09  5.2656e-13  3.6976e-13  3.0290e-14  0:00:06   30
  1971  5.3216e-13  7.2628e-13  3.2343e-13  3.7209e-09  5.3099e-13  3.5929e-13  2.9784e-14  0:00:05   29
  1972  5.3686e-13  7.2387e-13  3.1986e-13  3.6505e-09  5.3572e-13  3.4898e-13  2.9316e-14  0:00:04   28
  1973  5.4178e-13  7.2389e-13  3.1621e-13  3.5761e-09  5.4070e-13  3.3889e-13  2.8665e-14  0:00:03   27
  1974  5.4684e-13  7.2596e-13  3.1270e-13  3.5035e-09  5.4584e-13  3.3005e-13  2.8283e-14  0:00:02   26
  1975  5.5210e-13  7.2997e-13  3.0924e-13  3.4270e-09  5.5115e-13  3.2250e-13  2.8018e-14  0:00:02   25
  1976  5.5733e-13  7.3558e-13  3.0567e-13  3.3504e-09  5.5644e-13  3.1594e-13  2.7354e-14  0:00:01   24
  1977  5.6260e-13  7.4260e-13  3.0225e-13  3.2712e-09  5.6172e-13  3.1082e-13  2.7130e-14  0:00:01   23
  1978  5.6777e-13  7.5086e-13  2.9884e-13  3.1917e-09  5.6694e-13  3.0610e-13  2.7093e-14  0:00:01   22
  1979  5.7282e-13  7.6009e-13  2.9533e-13  3.1123e-09  5.7201e-13  3.0109e-13  2.6918e-14  0:00:01   21
  1980  5.7767e-13  7.7014e-13  2.9196e-13  3.0307e-09  5.7690e-13  2.9585e-13  2.6534e-14  0:00:00   20

  iter  continuity  x-velocity  y-velocity  z-velocity      energy           k       omega     time/iter
  1981  5.8231e-13  7.8081e-13  2.8868e-13  2.9481e-09  5.8159e-13  2.9058e-13  2.6173e-14  0:00:00   19
  1982  5.8663e-13  7.9196e-13  2.8531e-13  2.8648e-09  5.8593e-13  2.8605e-13  2.6060e-14  0:00:00   18
  1983  5.9065e-13  8.0338e-13  2.8216e-13  2.7827e-09  5.8998e-13  2.8180e-13  2.5966e-14  0:00:04   17
  1984  5.9425e-13  8.1500e-13  2.7902e-13  2.6981e-09  5.9361e-13  2.7790e-13  2.6123e-14  0:00:03   16
  1985  5.9743e-13  8.2665e-13  2.7580e-13  2.6138e-09  5.9680e-13  2.7379e-13  2.5921e-14  0:00:02   15
  1986  6.0022e-13  8.3829e-13  2.7290e-13  2.5316e-09  5.9958e-13  2.6998e-13  2.5760e-14  0:00:02   14
  1987  6.0255e-13  8.4971e-13  2.7001e-13  2.4506e-09  6.0193e-13  2.6706e-13  2.5779e-14  0:00:01   13
  1988  6.0443e-13  8.6096e-13  2.6710e-13  2.3711e-09  6.0384e-13  2.6631e-13  2.5743e-14  0:00:01   12
  1989  6.0588e-13  8.7178e-13  2.6423e-13  2.2915e-09  6.0530e-13  2.6553e-13  2.5710e-14  0:00:01   11
  1990  6.0691e-13  8.8230e-13  2.6142e-13  2.2109e-09  6.0637e-13  2.6537e-13  2.6080e-14  0:00:00   10
  1991  6.0752e-13  8.9240e-13  2.5860e-13  2.1330e-09  6.0698e-13  2.6435e-13  2.5805e-14  0:00:00    9

  iter  continuity  x-velocity  y-velocity  z-velocity      energy           k       omega     time/iter
  1992  6.0780e-13  9.0197e-13  2.5582e-13  2.0556e-09  6.0726e-13  2.6440e-13  2.5852e-14  0:00:00    8
  1993  6.0764e-13  9.1099e-13  2.5300e-13  1.9805e-09  6.0709e-13  2.6501e-13  2.6047e-14  0:00:00    7
  1994  6.0710e-13  9.1944e-13  2.5017e-13  1.9078e-09  6.0657e-13  2.6570e-13  2.6237e-14  0:00:00    6
  1995  6.0624e-13  9.2726e-13  2.4746e-13  1.8355e-09  6.0571e-13  2.6718e-13  2.6153e-14  0:00:00    5
  1996  6.0505e-13  9.3445e-13  2.4475e-13  1.7643e-09  6.0453e-13  2.6904e-13  2.6344e-14  0:00:00    4
  1997  6.0344e-13  9.4100e-13  2.4186e-13  1.6972e-09  6.0294e-13  2.7062e-13  2.6499e-14  0:00:00    3
  1998  6.0155e-13  9.4681e-13  2.3911e-13  1.6301e-09  6.0102e-13  2.7207e-13  2.6705e-14  0:00:00    2
  1999  5.9924e-13  9.5192e-13  2.3630e-13  1.5673e-09  5.9873e-13  2.7352e-13  2.6771e-14  0:00:00    1
  2000  5.9663e-13  9.5635e-13  2.3361e-13  1.5057e-09  5.9611e-13  2.7579e-13  2.6875e-14  0:00:00    0

> 
adjoint/                parallel/               server/
define/                 parametric-study/       solve/
display/                plot/                   surface/
exit                    preferences/            turbo-workflow/
file/                   print-license-usage     views/
mesh/                   report/

> /file/write-case-data project1
Fast-loading "C:\PROGRA~1\ANSYSI~1\v231\fluent\fluent23.1.0\\addons\afd\lib\hdfio.bin"
Done.

Writing to Engs-30669:"C:\Users\kebl7595\Desktop\CFD\Runs\Viscous\coarser\project1.cas.h5" in NODE0 mode and compression level 1 ...
        6750 cells,     1 zone  ...
       22791 faces,     8 zones ...
        9388 nodes,     1 zone  ...
  Done.
Done.

Writing to Engs-30669:"C:\Users\kebl7595\Desktop\CFD\Runs\Viscous\coarser\project1.dat.h5" in NODE0 mode and compression level 1 ...
  Writing results.
Done.

> /file/export/ascii "./surface.dat" wing te () no pressure mach-number quit no

Writing "./surface.dat"...

Writing information to ascii file ...
Done.


> /plot/plot y "pressuredata.dat" no n n pressure-coefficient no n x-coordinate wing ()

> /plot/plot y "frictiondata.dat" no n n skin-friction-coef no n x-coordinate wing ()

> /exit

Posting ANSYS Product Improvement Program performance data 
Done.
Auto-Transcript Stop Time:  10:17:28, 21 May 2024 GMT Daylight Time 
Total Transcript Time: 2 Minute 1 Second.
