Auto-Transcript Start Time:  11:37:18, 22 May 2024 GMT Daylight Time 
Current Directory: "C:\Users\kebl7595\Desktop\CFD\Runs\Flap\Shallower Aspect Ratio\9 degrees"

              Welcome to ANSYS Fluent 2023 R1

              Copyright 1987-2023 ANSYS, Inc. All Rights Reserved.
              Unauthorized use, distribution or duplication is prohibited.
              This product is subject to U.S. laws governing export and re-export.
              For full Legal Notice, see documentation.

Build Time: Nov 28 2022 09:52:02 EST  Build Id: 10208  
 
Connected License Server List:	1055@ansyslic.eng.ox.ac.uk

*********************************************
Info: Your license enables 4-way parallel execution.
For faster simulations, please start the application with the appropriate parallel options.
*********************************************


     --------------------------------------------------------------
     This is an academic version of ANSYS FLUENT. Usage of this product
     license is limited to the terms and conditions specified in your ANSYS
     license form, additional terms section.
     --------------------------------------------------------------
Host spawning Node 0 on machine "Engs-30669" (win64).

------------------------------------------------------------------------------------
ID    Hostname    Core  O.S.         PID    Vendor                                 
------------------------------------------------------------------------------------
n0    Engs-30669  1/32  Windows-x64  42260  13th Gen Intel(R) Core(TM) i9-13900    
host  Engs-30669        Windows-x64  39164  13th Gen Intel(R) Core(TM) i9-13900    

MPI Option Selected: intel
------------------------------------------------------------------------------------

Cleanup script file is C:\\Users\\kebl7595\\Desktop\\CFD\\Runs\\Flap\\Shallower Aspect Ratio\\9 degrees\\cleanup-fluent-Engs-30669-39164.bat

Posting ANSYS Product Improvement Program startup data
Done.

Reading journal file C:/Users/kebl7595/Desktop/CFD/Runs/Flap/Shallower Aspect Ratio/9 degrees/project1.jou...

> /file/set-batch-options no no no 

> 
define/                 parametric-study/       solve/
display/                plot/                   surface/
exit                    preferences/            switch-to-meshing-mode
file/                   print-license-usage     turbo-workflow/
mesh/                   report/                 views/
parallel/               server/

> /file/import/cgns/mesh  "./project1.cgns"
Engs-30669 has other FLUENT parallel processes running.                       Process affinity not being set.

Importing "./project1.cgns"

Opening library "C:\\PROGRA~1\\ANSYSI~1\\v231\\fluent\\fluent23.1.0\\vki\\win64\\devtools4.4.6.dll"... done.

Read    26676 nodes
   19422 hexahedral cells, zone  1
   14118 quadrilateral wall faces, zone  2.
   50733 quadrilateral interior faces, zone  3.
     474 quadrilateral interface faces, zone  4.

Building...
     mesh
     materials,
     interface,
     domains,
     zones,
	interface-default_subface
	default_interior-1
	default_subface
	default
     parallel,
The automatic selection for flux type has changed to Rhie-Chow: momentum based.

Done.


> 
adjoint/                parallel/               server/
define/                 parametric-study/       solve/
display/                plot/                   surface/
exit                    preferences/            turbo-workflow/
file/                   print-license-usage     views/
mesh/                   report/

> /define/models/solver/density-based-implicit yes

> 
adjoint/                parallel/               server/
define/                 parametric-study/       solve/
display/                plot/                   surface/
exit                    preferences/            turbo-workflow/
file/                   print-license-usage     views/
mesh/                   report/

> /define/models/energy? yes yes invalid command [yes]
yes

> /define/models/viscous/kw-standard? yes

> 
adjoint/                parallel/               server/
define/                 parametric-study/       solve/
display/                plot/                   surface/
exit                    preferences/            turbo-workflow/
file/                   print-license-usage     views/
mesh/                   report/

> /define/materials/change-create air air air is a fluid
yes 
Density
ideal-gas no data required.

no no no no no no

> 
adjoint/                parallel/               server/
define/                 parametric-study/       solve/
display/                plot/                   surface/
exit                    preferences/            turbo-workflow/
file/                   print-license-usage     views/
mesh/                   report/

> /mesh/modify-zones/sep-face-zone-angle 2 90 yes

 6474 faces in contiguous region 0
 348 faces in contiguous region 1
 618 faces in contiguous region 2
 6474 faces in contiguous region 3
 204 faces in contiguous region 4
 Separates zone 2 into 5 zone(s).
Updating new zone information...
   created new zone default_subface:009 from default_subface
   created new zone default_subface:008 from default_subface
   created new zone default_subface:007 from default_subface
   created new zone default_subface:006 from default_subface
done.

> 
adjoint/                parallel/               server/
define/                 parametric-study/       solve/
display/                plot/                   surface/
exit                    preferences/            turbo-workflow/
file/                   print-license-usage     views/
mesh/                   report/

> /define/boundary-conditions/zone-name  6 wing

> /define/boundary-conditions/zone-name  2 sym1

> /define/boundary-conditions/zone-name  8 sym2

> 
adjoint/                parallel/               server/
define/                 parametric-study/       solve/
display/                plot/                   surface/
exit                    preferences/            turbo-workflow/
file/                   print-license-usage     views/
mesh/                   report/

> /define/boundary-conditions/zone-name  7 far1

> /define/boundary-conditions/zone-name 9 far2

> 
adjoint/                parallel/               server/
define/                 parametric-study/       solve/
display/                plot/                   surface/
exit                    preferences/            turbo-workflow/
file/                   print-license-usage     views/
mesh/                   report/

> /define/boundary-conditions/zone-type  7 pressure-far-field

> /define/boundary-conditions/zone-type 9 pressure-far-field

> /define/boundary-conditions/zone-type  2 symmetry

> /define/boundary-conditions/zone-type  8 symmetry

> 
adjoint/                parallel/               server/
define/                 parametric-study/       solve/
display/                plot/                   surface/
exit                    preferences/            turbo-workflow/
file/                   print-license-usage     views/
mesh/                   report/

> /define/boundary-conditions/pressure-far-field (far2 far1)
far1 no 0 no 0.1 no 300 yes no 0.98769 no -0.15643 no 0. no yes 5 0.02

> /define/boundary-conditions/pressure-far-field (far2 far1)
far2 no 0 no 0.1 no 300 yes no 0.98769 no -0.15643 no 0. no yes 5 0.02

> 
adjoint/                parallel/               server/
define/                 parametric-study/       solve/
display/                plot/                   surface/
exit                    preferences/            turbo-workflow/
file/                   print-license-usage     views/
mesh/                   report/

> /solve/initialize/compute-defaults/pressure-far-field (far2 far1)
far1

> /solve/initialize/initialize-flow

> 
adjoint/                parallel/               server/
define/                 parametric-study/       solve/
display/                plot/                   surface/
exit                    preferences/            turbo-workflow/
file/                   print-license-usage     views/
mesh/                   report/

> /solve/monitors/residual/convergence-criteria 1.e-9 1.e-9 1.e-9 1.e-9 1.e-9 1.e-9 1.e-9

> /solve/iterate 2000

  iter  continuity  x-velocity  y-velocity  z-velocity      energy           k       omega     time/iter
     1  1.0000e+00  1.0000e+00  1.0000e+00  1.0000e+00  1.0000e+00  5.4318e-02  4.9108e-02  0:33:19 1999
     2  5.3152e-01  5.5738e-01  4.8175e-01  1.0000e+00  5.3173e-01  4.8485e-02  3.9322e-02  0:26:38 1998
     3  2.8841e-01  3.1470e-01  2.9547e-01  1.0000e+00  2.8842e-01  4.3660e-02  3.4965e-02  0:21:18 1997
     4  1.7607e-01  1.7043e-01  2.1848e-01  8.8609e-01  1.7597e-01  3.9646e-02  3.1731e-02  0:23:41 1996
     5  1.3179e-01  1.0635e-01  1.7731e-01  9.4033e-01  1.3166e-01  3.6315e-02  2.9418e-02  0:18:56 1995
     6  1.1455e-01  7.6709e-02  1.5665e-01  9.7901e-01  1.1444e-01  3.3417e-02  2.7435e-02  0:15:09 1994
     7  1.0119e-01  6.3209e-02  1.4702e-01  1.0071e+00  1.0111e-01  3.0868e-02  2.5607e-02  0:12:07 1993
     8  9.3574e-02  5.8105e-02  1.4189e-01  9.9382e-01  9.3518e-02  2.8656e-02  2.3976e-02  0:09:41 1992
     9  8.5470e-02  5.5944e-02  1.3781e-01  9.7632e-01  8.5423e-02  2.6745e-02  2.2555e-02  0:07:45 1991
    10  7.8206e-02  5.4112e-02  1.3336e-01  9.8025e-01  7.8157e-02  2.5085e-02  2.1312e-02  0:06:11 1990
    11  7.2741e-02  5.2313e-02  1.2788e-01  9.5304e-01  7.2679e-02  2.3628e-02  2.0206e-02  0:11:35 1989

  iter  continuity  x-velocity  y-velocity  z-velocity      energy           k       omega     time/iter
    12  6.7038e-02  5.1974e-02  1.2053e-01  9.5159e-01  6.6972e-02  2.2341e-02  1.9207e-02  0:09:16 1988
    13  6.2205e-02  5.1352e-02  1.1495e-01  9.4344e-01  6.2128e-02  2.1214e-02  1.8316e-02  0:07:24 1987
    14  5.8721e-02  5.1228e-02  1.0938e-01  9.4918e-01  5.8643e-02  2.0250e-02  1.7535e-02  0:05:55 1986
    15  5.6965e-02  5.0613e-02  1.0395e-01  9.5623e-01  5.6885e-02  1.9435e-02  1.6822e-02  0:04:44 1985
    16  5.7192e-02  5.1156e-02  9.9906e-02  9.7083e-01  5.7109e-02  1.8705e-02  1.6206e-02  0:03:47 1984
    17  5.4887e-02  5.2104e-02  9.6747e-02  9.9082e-01  5.4804e-02  1.8053e-02  1.5665e-02  0:03:02 1983
    18  5.2669e-02  5.1753e-02  9.3705e-02  1.0131e+00  5.2586e-02  1.7458e-02  1.5175e-02  0:02:25 1982
    19  5.1735e-02  5.0794e-02  9.1192e-02  1.0392e+00  5.1650e-02  1.6938e-02  1.4715e-02  0:08:32 1981
    20  5.0764e-02  4.9360e-02  8.8152e-02  1.0710e+00  5.0676e-02  1.6469e-02  1.4301e-02  0:06:50 1980
    21  5.1189e-02  4.7688e-02  8.5137e-02  1.0791e+00  5.1095e-02  1.6044e-02  1.3935e-02  0:05:28 1979
    22  5.2574e-02  4.5999e-02  8.2758e-02  1.0943e+00  5.2477e-02  1.5680e-02  1.3615e-02  0:04:22 1978

  iter  continuity  x-velocity  y-velocity  z-velocity      energy           k       omega     time/iter
    23  5.3622e-02  4.3904e-02  8.0152e-02  1.1437e+00  5.3526e-02  1.5379e-02  1.3325e-02  0:03:29 1977
    24  5.4309e-02  4.1315e-02  7.7584e-02  1.1577e+00  5.4215e-02  1.5067e-02  1.2996e-02  0:02:47 1976
    25  5.5363e-02  3.8163e-02  7.5310e-02  1.1596e+00  5.5273e-02  1.4753e-02  1.2644e-02  0:02:14 1975
    26  5.6996e-02  3.5740e-02  7.5005e-02  1.1421e+00  5.6906e-02  1.4535e-02  1.2465e-02  0:08:22 1974
    27  5.9015e-02  3.4350e-02  7.5380e-02  1.1130e+00  5.8931e-02  1.4329e-02  1.2207e-02  0:06:41 1973
    28  6.0824e-02  3.3210e-02  7.7283e-02  1.0598e+00  6.0746e-02  1.4063e-02  1.1893e-02  0:05:21 1972
    29  6.2532e-02  3.2413e-02  7.9695e-02  9.9562e-01  6.2460e-02  1.3750e-02  1.1660e-02  0:04:17 1971
    30  6.1583e-02  3.1498e-02  8.1444e-02  9.4248e-01  6.1515e-02  1.3620e-02  1.1523e-02  0:03:25 1970
    31  5.9435e-02  3.1306e-02  8.2686e-02  8.7315e-01  5.9369e-02  1.3395e-02  1.1276e-02  0:02:44 1969
    32  5.7115e-02  3.1163e-02  8.2405e-02  8.2603e-01  5.7051e-02  1.3121e-02  1.1018e-02  0:02:11 1968
    33  5.3711e-02  3.0710e-02  8.0633e-02  7.6712e-01  5.3650e-02  1.2863e-02  1.0755e-02  0:08:18 1967

  iter  continuity  x-velocity  y-velocity  z-velocity      energy           k       omega     time/iter
    34  4.9947e-02  3.0381e-02  7.8103e-02  7.3099e-01  4.9889e-02  1.2650e-02  1.0558e-02  0:06:38 1966
    35  4.6623e-02  2.9615e-02  7.4938e-02  7.0185e-01  4.6565e-02  1.2412e-02  1.0329e-02  0:05:19 1965
    36  4.3630e-02  2.8825e-02  7.0724e-02  6.7423e-01  4.3574e-02  1.2117e-02  1.0069e-02  0:04:15 1964
    37  4.0694e-02  2.8321e-02  6.6642e-02  6.5201e-01  4.0637e-02  1.1826e-02  9.8236e-03  0:03:24 1963
    38  3.8021e-02  2.7620e-02  6.2952e-02  6.1596e-01  3.7963e-02  1.1564e-02  9.5735e-03  0:02:43 1962
    39  3.5891e-02  2.6618e-02  5.9370e-02  5.7999e-01  3.5830e-02  1.1303e-02  9.3637e-03  0:02:10 1961
    40  3.5100e-02  2.5404e-02  5.6220e-02  5.4009e-01  3.5040e-02  1.1065e-02  9.0917e-03  0:01:44 1960
    41  3.4034e-02  2.5295e-02  5.3513e-02  5.0550e-01  3.3976e-02  1.0789e-02  8.8568e-03  0:07:55 1959
    42  3.3704e-02  2.4694e-02  5.1141e-02  4.7550e-01  3.3648e-02  1.0555e-02  8.6021e-03  0:06:20 1958
    43  3.4353e-02  2.3755e-02  4.9737e-02  4.5077e-01  3.4300e-02  1.0302e-02  8.3717e-03  0:05:04 1957
    44  3.5363e-02  2.3409e-02  4.8949e-02  4.4277e-01  3.5314e-02  1.0093e-02  8.1477e-03  0:04:03 1956

  iter  continuity  x-velocity  y-velocity  z-velocity      energy           k       omega     time/iter
    45  3.6096e-02  2.3427e-02  4.8766e-02  4.4926e-01  3.6052e-02  9.8817e-03  7.9632e-03  0:03:14 1955
    46  3.6059e-02  2.3593e-02  4.8218e-02  4.7162e-01  3.6020e-02  9.7355e-03  7.7683e-03  0:02:35 1954
    47  3.5499e-02  2.4400e-02  4.7645e-02  5.0638e-01  3.5464e-02  9.5793e-03  7.6277e-03  0:02:04 1953
    48  3.4975e-02  2.5174e-02  4.7665e-02  5.4715e-01  3.4944e-02  9.4918e-03  7.5025e-03  0:01:39 1952
    49  3.4072e-02  2.6051e-02  4.7710e-02  5.9971e-01  3.4042e-02  9.3750e-03  7.4073e-03  0:07:50 1951
    50  3.3113e-02  2.6832e-02  4.7745e-02  6.5927e-01  3.3085e-02  9.2952e-03  7.3051e-03  0:06:15 1950
    51  3.2333e-02  2.7448e-02  4.7909e-02  7.1447e-01  3.2305e-02  9.2422e-03  7.2461e-03  0:05:00 1949
    52  3.1599e-02  2.8171e-02  4.7948e-02  7.7383e-01  3.1572e-02  9.1605e-03  7.1765e-03  0:04:00 1948
    53  3.1098e-02  2.7922e-02  4.7950e-02  8.2313e-01  3.1071e-02  9.0643e-03  7.0944e-03  0:03:12 1947
    54  3.0911e-02  2.7540e-02  4.7846e-02  8.6846e-01  3.0886e-02  9.0136e-03  7.0572e-03  0:02:33 1946
    55  3.1324e-02  2.6747e-02  4.7350e-02  9.0973e-01  3.1298e-02  8.9389e-03  7.0204e-03  0:02:03 1945

  iter  continuity  x-velocity  y-velocity  z-velocity      energy           k       omega     time/iter
    56  3.2377e-02  2.5507e-02  4.6675e-02  9.3599e-01  3.2352e-02  8.8774e-03  6.9553e-03  0:01:38 1944
    57  3.4182e-02  2.4263e-02  4.6253e-02  9.6731e-01  3.4159e-02  8.8092e-03  6.8833e-03  0:07:47 1943
    58  3.6049e-02  2.3112e-02  4.6168e-02  9.8858e-01  3.6028e-02  8.8164e-03  6.8242e-03  0:06:13 1942
    59  3.8083e-02  2.2104e-02  4.6661e-02  9.8901e-01  3.8065e-02  8.8040e-03  6.7661e-03  0:04:59 1941
    60  4.0707e-02  2.1302e-02  4.7398e-02  9.6723e-01  4.0691e-02  8.8360e-03  6.7446e-03  0:03:59 1940
    61  4.3136e-02  2.0938e-02  4.8618e-02  9.6000e-01  4.3121e-02  8.8103e-03  6.7040e-03  0:03:11 1939
    62  4.5563e-02  2.0857e-02  5.0806e-02  9.4795e-01  4.5548e-02  8.8887e-03  6.6840e-03  0:02:33 1938
    63  4.7429e-02  2.1088e-02  5.3533e-02  8.9729e-01  4.7415e-02  8.9733e-03  6.6274e-03  0:02:02 1937
    64  4.8646e-02  2.1507e-02  5.6010e-02  8.3942e-01  4.8632e-02  8.9813e-03  6.5436e-03  0:01:38 1936
    65  4.9124e-02  2.1931e-02  5.8707e-02  7.7928e-01  4.9111e-02  8.9851e-03  6.5046e-03  0:07:45 1935
    66  4.8886e-02  2.2481e-02  6.1102e-02  7.2682e-01  4.8872e-02  8.9113e-03  6.4717e-03  0:06:12 1934

  iter  continuity  x-velocity  y-velocity  z-velocity      energy           k       omega     time/iter
    67  4.7220e-02  2.2966e-02  6.2791e-02  7.0025e-01  4.7204e-02  8.9933e-03  6.4723e-03  0:04:57 1933
    68  4.4923e-02  2.3077e-02  6.3675e-02  6.7474e-01  4.4905e-02  8.9241e-03  6.4269e-03  0:03:58 1932
    69  4.2738e-02  2.2952e-02  6.3437e-02  6.4015e-01  4.2715e-02  8.8039e-03  6.3904e-03  0:03:10 1931
    70  4.1058e-02  2.2988e-02  6.2447e-02  5.9575e-01  4.1033e-02  8.7062e-03  6.3501e-03  0:02:32 1930
    71  3.9449e-02  2.2614e-02  6.0046e-02  5.6374e-01  3.9421e-02  8.5279e-03  6.3059e-03  0:02:02 1929
    72  3.8719e-02  2.2079e-02  5.7201e-02  5.4036e-01  3.8687e-02  8.4118e-03  6.2445e-03  0:01:37 1928
    73  3.8851e-02  2.1771e-02  5.4693e-02  5.2481e-01  3.8817e-02  8.2573e-03  6.1882e-03  0:07:43 1927
    74  3.8780e-02  2.1605e-02  5.1556e-02  5.2503e-01  3.8744e-02  8.0843e-03  6.0993e-03  0:06:10 1926
    75  3.9559e-02  2.0925e-02  4.9243e-02  5.4061e-01  3.9521e-02  7.9553e-03  5.9967e-03  0:04:56 1925
    76  4.1463e-02  2.0628e-02  4.7866e-02  5.6719e-01  4.1426e-02  7.8168e-03  5.9238e-03  0:03:57 1924
    77  4.2172e-02  2.0509e-02  4.6257e-02  6.4409e-01  4.2137e-02  7.7151e-03  5.7885e-03  0:03:09 1923

  iter  continuity  x-velocity  y-velocity  z-velocity      energy           k       omega     time/iter
    78  4.2751e-02  2.0227e-02  4.5492e-02  7.0293e-01  4.2716e-02  7.6377e-03  5.7014e-03  0:02:31 1922
    79  4.2932e-02  2.0429e-02  4.5527e-02  7.7927e-01  4.2896e-02  7.5553e-03  5.6156e-03  0:02:01 1921
    80  4.1735e-02  2.0687e-02  4.6176e-02  8.4258e-01  4.1699e-02  7.4912e-03  5.5032e-03  0:01:37 1920
    81  3.9461e-02  2.1619e-02  4.6595e-02  8.8972e-01  3.9424e-02  7.4562e-03  5.4721e-03  0:07:41 1919
    82  3.6982e-02  2.2722e-02  4.7147e-02  9.2661e-01  3.6945e-02  7.4218e-03  5.4351e-03  0:06:09 1918
    83  3.4748e-02  2.3628e-02  4.7709e-02  9.6663e-01  3.4709e-02  7.3964e-03  5.4001e-03  0:04:55 1917
    84  3.4018e-02  2.4253e-02  4.8013e-02  1.0137e+00  3.3981e-02  7.3796e-03  5.3790e-03  0:03:56 1916
    85  3.4541e-02  2.4929e-02  4.8018e-02  1.0681e+00  3.4509e-02  7.3319e-03  5.3530e-03  0:03:09 1915
    86  3.5814e-02  2.5075e-02  4.7143e-02  1.1256e+00  3.5785e-02  7.2919e-03  5.3555e-03  0:02:31 1914
    87  3.7149e-02  2.4863e-02  4.6706e-02  1.1885e+00  3.7121e-02  7.3135e-03  5.3634e-03  0:02:01 1913
    88  3.8462e-02  2.4528e-02  4.5617e-02  1.2438e+00  3.8437e-02  7.2581e-03  5.3870e-03  0:07:59 1912

  iter  continuity  x-velocity  y-velocity  z-velocity      energy           k       omega     time/iter
    89  4.0446e-02  2.3962e-02  4.4497e-02  1.2850e+00  4.0424e-02  7.2640e-03  5.4047e-03  0:06:23 1911
    90  4.2213e-02  2.3323e-02  4.3478e-02  1.3271e+00  4.2194e-02  7.2338e-03  5.3543e-03  0:05:06 1910
    91  4.3585e-02  2.2428e-02  4.2892e-02  1.3617e+00  4.3568e-02  7.2600e-03  5.3312e-03  0:04:05 1909
    92  4.3837e-02  2.1613e-02  4.2671e-02  1.3630e+00  4.3822e-02  7.1868e-03  5.2774e-03  0:03:16 1908
    93  4.3184e-02  2.0825e-02  4.2403e-02  1.3609e+00  4.3171e-02  7.1542e-03  5.2334e-03  0:02:36 1907
    94  4.1422e-02  1.9961e-02  4.2518e-02  1.3528e+00  4.1410e-02  7.0804e-03  5.2048e-03  0:02:05 1906
    95  3.8949e-02  1.9208e-02  4.2240e-02  1.3510e+00  3.8938e-02  7.0366e-03  5.0961e-03  0:01:40 1905
    96  3.6224e-02  1.8563e-02  4.2057e-02  1.3368e+00  3.6214e-02  6.9198e-03  5.0350e-03  0:07:41 1904
    97  3.3682e-02  1.8003e-02  4.1206e-02  1.3102e+00  3.3673e-02  6.8106e-03  4.9602e-03  0:06:08 1903
    98  3.1782e-02  1.7547e-02  3.9758e-02  1.2818e+00  3.1774e-02  6.6402e-03  4.8543e-03  0:04:55 1902
    99  3.0499e-02  1.7122e-02  3.7873e-02  1.2442e+00  3.0492e-02  6.4896e-03  4.7815e-03  0:03:56 1901

  iter  continuity  x-velocity  y-velocity  z-velocity      energy           k       omega     time/iter
   100  2.9844e-02  1.6815e-02  3.5806e-02  1.2071e+00  2.9837e-02  6.3613e-03  4.6668e-03  0:03:08 1900
   101  2.9778e-02  1.6475e-02  3.3842e-02  1.1677e+00  2.9770e-02  6.2484e-03  4.5806e-03  0:02:31 1899
   102  3.0139e-02  1.6302e-02  3.1708e-02  1.1253e+00  3.0130e-02  6.1130e-03  4.4594e-03  0:02:00 1898
   103  3.0725e-02  1.5788e-02  2.9804e-02  1.0831e+00  3.0715e-02  5.9671e-03  4.3097e-03  0:01:36 1897
   104  3.1870e-02  1.5401e-02  2.8385e-02  1.0400e+00  3.1859e-02  5.8219e-03  4.1882e-03  0:07:36 1896
   105  3.2066e-02  1.5137e-02  2.7375e-02  9.9508e-01  3.2055e-02  5.7014e-03  4.0842e-03  0:06:05 1895
   106  3.1369e-02  1.5113e-02  2.6683e-02  9.4922e-01  3.1357e-02  5.6277e-03  4.0057e-03  0:04:52 1894
   107  2.9753e-02  1.5186e-02  2.6240e-02  9.0535e-01  2.9741e-02  5.5207e-03  3.9162e-03  0:03:53 1893
   108  2.7641e-02  1.5144e-02  2.5992e-02  8.6578e-01  2.7627e-02  5.4357e-03  3.8474e-03  0:03:06 1892
   109  2.5497e-02  1.5120e-02  2.5838e-02  8.3119e-01  2.5483e-02  5.3491e-03  3.7867e-03  0:02:29 1891
   110  2.4475e-02  1.5062e-02  2.5388e-02  7.9655e-01  2.4462e-02  5.2919e-03  3.7438e-03  0:01:59 1890

  iter  continuity  x-velocity  y-velocity  z-velocity      energy           k       omega     time/iter
   111  2.4417e-02  1.5009e-02  2.4796e-02  7.6567e-01  2.4405e-02  5.2352e-03  3.7251e-03  0:07:53 1889
   112  2.5382e-02  1.4774e-02  2.4329e-02  7.3829e-01  2.5370e-02  5.1741e-03  3.7189e-03  0:06:18 1888
   113  2.6757e-02  1.4484e-02  2.3927e-02  7.1602e-01  2.6745e-02  5.1116e-03  3.7143e-03  0:05:02 1887
   114  2.8133e-02  1.4108e-02  2.3321e-02  6.9564e-01  2.8122e-02  5.0728e-03  3.6861e-03  0:04:02 1886
   115  2.9865e-02  1.3636e-02  2.2830e-02  6.7676e-01  2.9854e-02  5.0457e-03  3.6538e-03  0:03:13 1885
   116  3.1399e-02  1.3233e-02  2.2686e-02  6.5291e-01  3.1386e-02  5.0069e-03  3.6456e-03  0:02:35 1884
   117  3.1962e-02  1.2878e-02  2.2576e-02  6.3034e-01  3.1949e-02  4.9764e-03  3.6229e-03  0:02:04 1883
   118  3.1714e-02  1.2493e-02  2.2769e-02  6.0807e-01  3.1703e-02  4.9684e-03  3.5413e-03  0:07:55 1882
   119  3.0628e-02  1.2130e-02  2.3213e-02  5.7946e-01  3.0616e-02  4.9170e-03  3.5262e-03  0:06:20 1881
   120  2.8956e-02  1.1805e-02  2.3356e-02  5.4660e-01  2.8945e-02  4.8559e-03  3.4720e-03  0:05:04 1880
   121  2.7178e-02  1.1523e-02  2.3366e-02  5.0442e-01  2.7168e-02  4.7958e-03  3.4419e-03  0:04:03 1879

  iter  continuity  x-velocity  y-velocity  z-velocity      energy           k       omega     time/iter
   122  2.5741e-02  1.1252e-02  2.2937e-02  4.6029e-01  2.5731e-02  4.7348e-03  3.4091e-03  0:03:14 1878
   123  2.4494e-02  1.1055e-02  2.2131e-02  4.2882e-01  2.4485e-02  4.6698e-03  3.3580e-03  0:02:35 1877
   124  2.4209e-02  1.0975e-02  2.1130e-02  4.0487e-01  2.4200e-02  4.6094e-03  3.2993e-03  0:02:04 1876
   125  2.3880e-02  1.0844e-02  2.0042e-02  3.8585e-01  2.3871e-02  4.5223e-03  3.2138e-03  0:01:39 1875
   126  2.4309e-02  1.0731e-02  1.8989e-02  3.7292e-01  2.4300e-02  4.4660e-03  3.1250e-03  0:07:34 1874
   127  2.4479e-02  1.0720e-02  1.8107e-02  3.6400e-01  2.4470e-02  4.3915e-03  3.0584e-03  0:06:03 1873
   128  2.4428e-02  1.0738e-02  1.7434e-02  3.6003e-01  2.4418e-02  4.3438e-03  3.0255e-03  0:04:50 1872
   129  2.3986e-02  1.0766e-02  1.6998e-02  3.5867e-01  2.3975e-02  4.2820e-03  2.9707e-03  0:03:52 1871
   130  2.2408e-02  1.0801e-02  1.6782e-02  3.6332e-01  2.2396e-02  4.2186e-03  2.8974e-03  0:03:06 1870
   131  2.0324e-02  1.0934e-02  1.6774e-02  3.7602e-01  2.0311e-02  4.1955e-03  2.9045e-03  0:02:28 1869
   132  1.8427e-02  1.1055e-02  1.6671e-02  3.9365e-01  1.8414e-02  4.1742e-03  2.9063e-03  0:01:59 1868

  iter  continuity  x-velocity  y-velocity  z-velocity      energy           k       omega     time/iter
   133  1.7757e-02  1.1146e-02  1.6543e-02  4.1554e-01  1.7743e-02  4.1560e-03  2.9136e-03  0:07:48 1867
   134  1.8510e-02  1.1155e-02  1.6403e-02  4.3991e-01  1.8496e-02  4.1418e-03  2.9445e-03  0:06:14 1866
   135  1.9945e-02  1.1145e-02  1.6250e-02  4.6543e-01  1.9931e-02  4.1619e-03  2.9537e-03  0:04:59 1865
   136  2.1817e-02  1.1078e-02  1.6166e-02  4.9305e-01  2.1802e-02  4.1809e-03  2.9474e-03  0:03:59 1864
   137  2.3801e-02  1.0916e-02  1.5969e-02  5.2455e-01  2.3786e-02  4.2065e-03  2.9795e-03  0:03:11 1863
   138  2.5148e-02  1.0720e-02  1.5910e-02  5.4887e-01  2.5133e-02  4.2510e-03  3.0086e-03  0:02:33 1862
   139  2.6096e-02  1.0539e-02  1.5892e-02  5.7530e-01  2.6080e-02  4.2828e-03  3.0313e-03  0:02:02 1861
   140  2.6112e-02  1.0358e-02  1.5993e-02  5.9525e-01  2.6096e-02  4.2813e-03  3.0189e-03  0:07:50 1860
   141  2.5641e-02  1.0193e-02  1.6365e-02  6.0878e-01  2.5625e-02  4.3210e-03  3.0057e-03  0:06:16 1859
   142  2.4310e-02  9.9824e-03  1.6671e-02  6.1825e-01  2.4294e-02  4.3457e-03  3.0222e-03  0:05:00 1858
   143  2.2379e-02  9.7999e-03  1.6606e-02  6.1371e-01  2.2363e-02  4.3674e-03  2.9916e-03  0:04:00 1857

  iter  continuity  x-velocity  y-velocity  z-velocity      energy           k       omega     time/iter
   144  2.0295e-02  9.5592e-03  1.6504e-02  6.0660e-01  2.0280e-02  4.3512e-03  2.9757e-03  0:03:12 1856
   145  1.8743e-02  9.2677e-03  1.6108e-02  5.9674e-01  1.8728e-02  4.3575e-03  2.9097e-03  0:02:34 1855
   146  1.7944e-02  9.0820e-03  1.5570e-02  5.9115e-01  1.7930e-02  4.3362e-03  2.8725e-03  0:02:03 1854
   147  1.7710e-02  8.8635e-03  1.5037e-02  5.8703e-01  1.7697e-02  4.3109e-03  2.8074e-03  0:07:49 1853
   148  1.8302e-02  8.6534e-03  1.4366e-02  5.8070e-01  1.8289e-02  4.2861e-03  2.7485e-03  0:06:15 1852
   149  1.8485e-02  8.5377e-03  1.3737e-02  5.7449e-01  1.8472e-02  4.2549e-03  2.6913e-03  0:05:00 1851
   150  1.8704e-02  8.3964e-03  1.3182e-02  5.6702e-01  1.8691e-02  4.2562e-03  2.6845e-03  0:04:00 1850
   151  1.9079e-02  8.3090e-03  1.2790e-02  5.5731e-01  1.9066e-02  4.2587e-03  2.6421e-03  0:03:12 1849
   152  1.8892e-02  8.3068e-03  1.2613e-02  5.4744e-01  1.8879e-02  4.2336e-03  2.5764e-03  0:02:33 1848
   153  1.8093e-02  8.3999e-03  1.2531e-02  5.3703e-01  1.8080e-02  4.2467e-03  2.5724e-03  0:02:02 1847
   154  1.6744e-02  8.5059e-03  1.2500e-02  5.2538e-01  1.6731e-02  4.2618e-03  2.5761e-03  0:07:47 1846

  iter  continuity  x-velocity  y-velocity  z-velocity      energy           k       omega     time/iter
   155  1.5538e-02  8.5648e-03  1.2540e-02  5.1477e-01  1.5526e-02  4.2774e-03  2.5637e-03  0:06:14 1845
   156  1.4824e-02  8.6017e-03  1.2526e-02  5.0413e-01  1.4812e-02  4.2885e-03  2.5595e-03  0:04:59 1844
   157  1.4378e-02  8.6322e-03  1.2449e-02  4.9441e-01  1.4366e-02  4.3285e-03  2.5717e-03  0:03:59 1843
   158  1.4892e-02  8.6040e-03  1.2389e-02  4.8665e-01  1.4880e-02  4.3532e-03  2.5756e-03  0:03:11 1842
   159  1.6175e-02  8.5036e-03  1.2173e-02  4.8096e-01  1.6163e-02  4.3849e-03  2.5778e-03  0:02:33 1841
   160  1.7580e-02  8.3596e-03  1.1962e-02  4.7515e-01  1.7567e-02  4.4359e-03  2.5877e-03  0:02:02 1840
   161  1.9018e-02  8.1558e-03  1.1798e-02  4.7010e-01  1.9005e-02  4.4818e-03  2.5990e-03  0:07:45 1839
   162  1.9893e-02  7.9872e-03  1.1710e-02  4.6647e-01  1.9879e-02  4.5064e-03  2.5927e-03  0:06:12 1838
   163  2.0328e-02  7.8303e-03  1.1701e-02  4.5757e-01  2.0314e-02  4.5553e-03  2.5682e-03  0:04:58 1837
   164  2.0123e-02  7.6720e-03  1.1766e-02  4.5048e-01  2.0110e-02  4.5670e-03  2.5794e-03  0:03:58 1836
   165  1.9088e-02  7.5222e-03  1.1840e-02  4.3432e-01  1.9076e-02  4.5838e-03  2.5519e-03  0:03:10 1835

  iter  continuity  x-velocity  y-velocity  z-velocity      energy           k       omega     time/iter
   166  1.7756e-02  7.3820e-03  1.1810e-02  4.1644e-01  1.7744e-02  4.5820e-03  2.5319e-03  0:02:32 1834
   167  1.6387e-02  7.1628e-03  1.1635e-02  3.9449e-01  1.6376e-02  4.5798e-03  2.5118e-03  0:02:02 1833
   168  1.5461e-02  6.9993e-03  1.1332e-02  3.7441e-01  1.5451e-02  4.5686e-03  2.4993e-03  0:07:44 1832
   169  1.5285e-02  6.8415e-03  1.1007e-02  3.6045e-01  1.5276e-02  4.5257e-03  2.4612e-03  0:06:11 1831
   170  1.6043e-02  6.7446e-03  1.0607e-02  3.4851e-01  1.6034e-02  4.5007e-03  2.4117e-03  0:04:56 1830
   171  1.6531e-02  6.7082e-03  1.0328e-02  3.3894e-01  1.6522e-02  4.4654e-03  2.3718e-03  0:03:57 1829
   172  1.6938e-02  6.6920e-03  1.0042e-02  3.3376e-01  1.6929e-02  4.4173e-03  2.3423e-03  0:03:09 1828
   173  1.7277e-02  6.7415e-03  9.8586e-03  3.2886e-01  1.7267e-02  4.3875e-03  2.3352e-03  0:02:32 1827
   174  1.7232e-02  6.8503e-03  9.8571e-03  3.2852e-01  1.7222e-02  4.3619e-03  2.2868e-03  0:02:01 1826
   175  1.6495e-02  6.9879e-03  9.8501e-03  3.3095e-01  1.6485e-02  4.3180e-03  2.2564e-03  0:07:42 1825
   176  1.5604e-02  7.1733e-03  9.9078e-03  3.3502e-01  1.5594e-02  4.3009e-03  2.2761e-03  0:06:09 1824

  iter  continuity  x-velocity  y-velocity  z-velocity      energy           k       omega     time/iter
   177  1.4858e-02  7.2574e-03  9.9406e-03  3.4261e-01  1.4847e-02  4.2809e-03  2.2682e-03  0:04:55 1823
   178  1.4751e-02  7.3280e-03  9.9003e-03  3.5401e-01  1.4739e-02  4.2664e-03  2.2800e-03  0:03:56 1822
   179  1.5274e-02  7.3670e-03  9.9110e-03  3.6487e-01  1.5262e-02  4.2527e-03  2.2794e-03  0:03:09 1821
   180  1.6362e-02  7.2824e-03  9.8500e-03  3.8018e-01  1.6348e-02  4.2387e-03  2.2856e-03  0:02:31 1820
   181  1.7738e-02  7.1603e-03  9.6994e-03  3.9613e-01  1.7723e-02  4.2293e-03  2.2853e-03  0:02:01 1819
   182  1.9264e-02  7.0359e-03  9.6405e-03  4.0613e-01  1.9247e-02  4.2276e-03  2.2883e-03  0:07:40 1818
   183  2.0537e-02  6.9704e-03  9.5085e-03  4.2163e-01  2.0519e-02  4.1956e-03  2.2950e-03  0:06:08 1817
   184  2.1139e-02  6.8989e-03  9.5561e-03  4.3019e-01  2.1121e-02  4.1671e-03  2.2671e-03  0:04:54 1816
   185  2.1040e-02  6.8688e-03  9.5127e-03  4.3383e-01  2.1021e-02  4.1384e-03  2.2595e-03  0:03:55 1815
   186  2.0266e-02  6.7825e-03  9.5465e-03  4.5819e-01  2.0248e-02  4.1016e-03  2.2246e-03  0:03:08 1814
   187  1.8919e-02  6.6765e-03  9.4070e-03  4.4056e-01  1.8902e-02  4.0340e-03  2.1900e-03  0:02:30 1813

  iter  continuity  x-velocity  y-velocity  z-velocity      energy           k       omega     time/iter
   188  1.7314e-02  6.5122e-03  9.1859e-03  4.0871e-01  1.7298e-02  3.9897e-03  2.1491e-03  0:02:00 1812
   189  1.6100e-02  6.3201e-03  8.8768e-03  3.8450e-01  1.6085e-02  3.9109e-03  2.1112e-03  0:01:36 1811
   190  1.5450e-02  6.2126e-03  8.6756e-03  3.6901e-01  1.5436e-02  3.8511e-03  2.0688e-03  0:07:19 1810
   191  1.5383e-02  6.1345e-03  8.5115e-03  3.5758e-01  1.5370e-02  3.7558e-03  2.0139e-03  0:05:51 1809
   192  1.5721e-02  6.1400e-03  8.3017e-03  3.4998e-01  1.5708e-02  3.6887e-03  1.9743e-03  0:04:41 1808
   193  1.6381e-02  6.2635e-03  8.1639e-03  3.4544e-01  1.6368e-02  3.6278e-03  1.9408e-03  0:03:44 1807
   194  1.6819e-02  6.3788e-03  8.1570e-03  3.3941e-01  1.6806e-02  3.5917e-03  1.9199e-03  0:02:59 1806
   195  1.6631e-02  6.4795e-03  8.1796e-03  3.3710e-01  1.6618e-02  3.5367e-03  1.8895e-03  0:02:23 1805
   196  1.6077e-02  6.5261e-03  8.3072e-03  3.3558e-01  1.6063e-02  3.4874e-03  1.8759e-03  0:07:55 1804
   197  1.5207e-02  6.5870e-03  8.3772e-03  3.3508e-01  1.5193e-02  3.4461e-03  1.8846e-03  0:06:20 1803
   198  1.4325e-02  6.5816e-03  8.4150e-03  3.3526e-01  1.4311e-02  3.4026e-03  1.8741e-03  0:05:04 1802

  iter  continuity  x-velocity  y-velocity  z-velocity      energy           k       omega     time/iter
   199  1.3934e-02  6.5167e-03  8.3914e-03  3.4179e-01  1.3919e-02  3.3414e-03  1.8659e-03  0:04:03 1801
   200  1.4024e-02  6.3650e-03  8.3552e-03  3.5230e-01  1.4009e-02  3.3131e-03  1.8501e-03  0:03:14 1800
   201  1.4896e-02  6.2508e-03  8.2443e-03  3.6606e-01  1.4881e-02  3.2798e-03  1.8066e-03  0:02:35 1799
   202  1.5906e-02  6.1502e-03  8.2391e-03  3.7982e-01  1.5890e-02  3.2379e-03  1.7805e-03  0:02:04 1798
   203  1.6795e-02  6.0746e-03  8.3788e-03  3.9695e-01  1.6778e-02  3.1881e-03  1.7618e-03  0:07:39 1797
   204  1.7525e-02  6.0844e-03  8.5167e-03  4.0730e-01  1.7508e-02  3.1605e-03  1.7430e-03  0:06:07 1796
   205  1.8014e-02  6.1456e-03  8.6328e-03  4.2192e-01  1.7996e-02  3.1403e-03  1.7290e-03  0:04:53 1795
   206  1.7848e-02  6.1326e-03  8.7055e-03  4.2682e-01  1.7831e-02  3.1040e-03  1.7086e-03  0:03:54 1794
   207  1.7076e-02  6.0754e-03  8.7640e-03  4.3057e-01  1.7060e-02  3.0666e-03  1.6738e-03  0:03:07 1793
   208  1.5804e-02  5.9607e-03  8.8348e-03  4.3367e-01  1.5789e-02  3.0197e-03  1.6434e-03  0:02:30 1792
   209  1.4372e-02  5.7668e-03  8.7755e-03  4.2948e-01  1.4358e-02  2.9775e-03  1.6376e-03  0:02:00 1791

  iter  continuity  x-velocity  y-velocity  z-velocity      energy           k       omega     time/iter
   210  1.2985e-02  5.5776e-03  8.5988e-03  4.2825e-01  1.2971e-02  2.9263e-03  1.6149e-03  0:07:34 1790
   211  1.1981e-02  5.4053e-03  8.4374e-03  4.2629e-01  1.1969e-02  2.8580e-03  1.5851e-03  0:06:03 1789
   212  1.1487e-02  5.2316e-03  8.2562e-03  4.2128e-01  1.1475e-02  2.8146e-03  1.5652e-03  0:04:50 1788
   213  1.1617e-02  5.1181e-03  8.1424e-03  4.2199e-01  1.1606e-02  2.7649e-03  1.5450e-03  0:03:52 1787
   214  1.2006e-02  5.0575e-03  8.0087e-03  4.2464e-01  1.1994e-02  2.7240e-03  1.5345e-03  0:03:05 1786
   215  1.2569e-02  5.0533e-03  7.8736e-03  4.3287e-01  1.2557e-02  2.6754e-03  1.5096e-03  0:02:28 1785
   216  1.3168e-02  5.0742e-03  7.6975e-03  4.3469e-01  1.3155e-02  2.6229e-03  1.4967e-03  0:01:59 1784
   217  1.3499e-02  5.0774e-03  7.6386e-03  4.3456e-01  1.3486e-02  2.5879e-03  1.4856e-03  0:07:31 1783
   218  1.3224e-02  5.0941e-03  7.5367e-03  4.3449e-01  1.3210e-02  2.5516e-03  1.4792e-03  0:06:01 1782
   219  1.2839e-02  5.1494e-03  7.4516e-03  4.4112e-01  1.2826e-02  2.5134e-03  1.4769e-03  0:04:49 1781
   220  1.2577e-02  5.2132e-03  7.4481e-03  4.3968e-01  1.2564e-02  2.4810e-03  1.4755e-03  0:03:51 1780

  iter  continuity  x-velocity  y-velocity  z-velocity      energy           k       omega     time/iter
   221  1.1777e-02  5.2373e-03  7.3676e-03  4.3742e-01  1.1764e-02  2.4297e-03  1.4647e-03  0:03:04 1779
   222  1.1152e-02  5.2595e-03  7.2768e-03  4.3469e-01  1.1139e-02  2.3876e-03  1.4424e-03  0:02:28 1778
   223  1.0710e-02  5.2325e-03  7.1702e-03  4.3662e-01  1.0698e-02  2.3565e-03  1.4343e-03  0:01:58 1777
   224  1.0548e-02  5.2382e-03  7.0835e-03  4.3823e-01  1.0536e-02  2.3298e-03  1.4215e-03  0:07:29 1776
   225  1.0482e-02  5.2048e-03  6.9675e-03  4.3565e-01  1.0470e-02  2.3083e-03  1.3996e-03  0:05:59 1775
   226  1.0313e-02  5.1533e-03  6.8364e-03  4.3422e-01  1.0301e-02  2.2706e-03  1.3889e-03  0:04:47 1774
   227  1.0269e-02  5.0751e-03  6.7702e-03  4.3237e-01  1.0258e-02  2.2375e-03  1.3906e-03  0:03:50 1773
   228  1.0142e-02  4.9920e-03  6.7494e-03  4.2955e-01  1.0131e-02  2.2144e-03  1.3703e-03  0:03:04 1772
   229  1.0055e-02  4.9706e-03  6.6408e-03  4.2487e-01  1.0044e-02  2.1959e-03  1.3639e-03  0:02:27 1771
   230  9.7597e-03  4.8798e-03  6.5824e-03  4.2055e-01  9.7489e-03  2.1748e-03  1.3424e-03  0:07:51 1770
   231  9.4642e-03  4.7833e-03  6.5522e-03  4.1235e-01  9.4538e-03  2.1513e-03  1.3278e-03  0:06:17 1769

  iter  continuity  x-velocity  y-velocity  z-velocity      energy           k       omega     time/iter
   232  9.0697e-03  4.7246e-03  6.4571e-03  4.0452e-01  9.0601e-03  2.1322e-03  1.3173e-03  0:05:01 1768
   233  8.6583e-03  4.6499e-03  6.3808e-03  3.9608e-01  8.6494e-03  2.1205e-03  1.2875e-03  0:04:01 1767
   234  8.1143e-03  4.5178e-03  6.3081e-03  3.8665e-01  8.1060e-03  2.0994e-03  1.2884e-03  0:03:13 1766
   235  7.7962e-03  4.4118e-03  6.2376e-03  3.7648e-01  7.7883e-03  2.0691e-03  1.2684e-03  0:08:27 1765
   236  7.5203e-03  4.3337e-03  6.1375e-03  3.6513e-01  7.5130e-03  2.0521e-03  1.2508e-03  0:06:45 1764
   237  7.3594e-03  4.2499e-03  5.9980e-03  3.5469e-01  7.3525e-03  2.0393e-03  1.2520e-03  0:05:24 1763
   238  7.3702e-03  4.1396e-03  5.8928e-03  3.4203e-01  7.3633e-03  2.0112e-03  1.2387e-03  0:04:19 1762
   239  7.4107e-03  4.0595e-03  5.7778e-03  3.2979e-01  7.4037e-03  1.9831e-03  1.2197e-03  0:03:27 1761
   240  7.3877e-03  3.9986e-03  5.6576e-03  3.1656e-01  7.3809e-03  1.9641e-03  1.2199e-03  0:02:46 1760
   241  7.2868e-03  3.9359e-03  5.5159e-03  3.0228e-01  7.2801e-03  1.9412e-03  1.2133e-03  0:02:12 1759
   242  7.1950e-03  3.8466e-03  5.3831e-03  2.8889e-01  7.1884e-03  1.9184e-03  1.1999e-03  0:07:38 1758

  iter  continuity  x-velocity  y-velocity  z-velocity      energy           k       omega     time/iter
   243  7.0938e-03  3.7610e-03  5.2762e-03  2.7632e-01  7.0870e-03  1.8933e-03  1.1798e-03  0:06:06 1757
   244  6.8958e-03  3.7084e-03  5.1691e-03  2.6012e-01  6.8891e-03  1.8709e-03  1.1615e-03  0:04:52 1756
   245  6.6572e-03  3.6416e-03  5.0324e-03  2.4486e-01  6.6508e-03  1.8473e-03  1.1480e-03  0:03:54 1755
   246  6.1584e-03  3.5376e-03  4.8840e-03  2.3308e-01  6.1524e-03  1.8236e-03  1.1239e-03  0:03:07 1754
   247  5.8104e-03  3.4608e-03  4.7655e-03  2.1974e-01  5.8047e-03  1.8025e-03  1.0914e-03  0:02:29 1753
   248  5.6406e-03  3.3980e-03  4.6439e-03  2.0590e-01  5.6352e-03  1.7866e-03  1.0680e-03  0:07:50 1752
   249  5.3628e-03  3.3058e-03  4.5014e-03  1.9360e-01  5.3577e-03  1.7656e-03  1.0674e-03  0:06:16 1751
   250  5.0572e-03  3.2033e-03  4.3764e-03  1.8546e-01  5.0524e-03  1.7392e-03  1.0537e-03  0:05:00 1750
   251  4.8707e-03  3.1137e-03  4.2316e-03  1.8025e-01  4.8661e-03  1.7175e-03  1.0299e-03  0:04:00 1749
   252  4.9308e-03  3.0539e-03  4.1313e-03  1.7377e-01  4.9263e-03  1.7023e-03  1.0129e-03  0:03:12 1748
   253  4.8036e-03  2.9529e-03  4.0031e-03  1.7209e-01  4.7991e-03  1.6870e-03  9.9857e-04  0:02:34 1747

  iter  continuity  x-velocity  y-velocity  z-velocity      energy           k       omega     time/iter
   254  4.5085e-03  2.8472e-03  3.8734e-03  1.7400e-01  4.5044e-03  1.6696e-03  9.8731e-04  0:07:52 1746
   255  4.3215e-03  2.7541e-03  3.7569e-03  1.7684e-01  4.3176e-03  1.6485e-03  9.6356e-04  0:06:17 1745
   256  4.2479e-03  2.6706e-03  3.6355e-03  1.8137e-01  4.2440e-03  1.6295e-03  9.3840e-04  0:05:02 1744
   257  4.2571e-03  2.6058e-03  3.5275e-03  1.8682e-01  4.2534e-03  1.6110e-03  9.1801e-04  0:04:01 1743
   258  4.1668e-03  2.5235e-03  3.3992e-03  1.9338e-01  4.1632e-03  1.5951e-03  9.0322e-04  0:03:13 1742
   259  4.0911e-03  2.4346e-03  3.2988e-03  2.0140e-01  4.0874e-03  1.5813e-03  8.9118e-04  0:02:34 1741
   260  4.1164e-03  2.3403e-03  3.1880e-03  2.1001e-01  4.1126e-03  1.5584e-03  8.8110e-04  0:02:03 1740
   261  4.2889e-03  2.2678e-03  3.0761e-03  2.1964e-01  4.2848e-03  1.5337e-03  8.7030e-04  0:07:26 1739
   262  4.5058e-03  2.2011e-03  2.9603e-03  2.2977e-01  4.5014e-03  1.5075e-03  8.4824e-04  0:05:57 1738
   263  4.7152e-03  2.1408e-03  2.8540e-03  2.4039e-01  4.7105e-03  1.4861e-03  8.2945e-04  0:04:45 1737
   264  4.9609e-03  2.0812e-03  2.7575e-03  2.5045e-01  4.9558e-03  1.4715e-03  8.0817e-04  0:03:48 1736

  iter  continuity  x-velocity  y-velocity  z-velocity      energy           k       omega     time/iter
   265  5.2054e-03  2.0188e-03  2.6774e-03  2.6080e-01  5.1999e-03  1.4600e-03  7.9840e-04  0:03:02 1735
   266  5.4854e-03  1.9573e-03  2.5907e-03  2.7105e-01  5.4795e-03  1.4444e-03  7.8278e-04  0:02:26 1734
   267  5.8432e-03  1.9034e-03  2.4991e-03  2.8103e-01  5.8368e-03  1.4256e-03  7.6902e-04  0:01:57 1733
   268  6.1090e-03  1.8644e-03  2.4202e-03  2.9056e-01  6.1022e-03  1.4068e-03  7.6051e-04  0:07:20 1732
   269  6.3455e-03  1.8292e-03  2.3482e-03  2.9922e-01  6.3383e-03  1.3893e-03  7.4121e-04  0:05:52 1731
   270  6.5762e-03  1.7950e-03  2.2902e-03  3.0712e-01  6.5687e-03  1.3808e-03  7.2987e-04  0:04:41 1730
   271  6.8353e-03  1.7583e-03  2.2418e-03  3.1455e-01  6.8275e-03  1.3726e-03  7.1707e-04  0:03:45 1729
   272  7.0419e-03  1.7234e-03  2.1930e-03  3.2128e-01  7.0337e-03  1.3653e-03  7.0889e-04  0:03:00 1728
   273  7.1225e-03  1.6926e-03  2.1435e-03  3.2716e-01  7.1142e-03  1.3585e-03  7.1211e-04  0:02:24 1727
   274  7.0950e-03  1.6652e-03  2.0956e-03  3.3235e-01  7.0868e-03  1.3500e-03  7.0679e-04  0:01:55 1726
   275  7.0058e-03  1.6424e-03  2.0521e-03  3.3680e-01  6.9976e-03  1.3403e-03  6.9987e-04  0:07:17 1725

  iter  continuity  x-velocity  y-velocity  z-velocity      energy           k       omega     time/iter
   276  6.9105e-03  1.6227e-03  2.0171e-03  3.4052e-01  6.9024e-03  1.3304e-03  6.9829e-04  0:05:49 1724
   277  6.8474e-03  1.6034e-03  1.9857e-03  3.4371e-01  6.8395e-03  1.3233e-03  7.0280e-04  0:04:39 1723
   278  6.8358e-03  1.5857e-03  1.9581e-03  3.4608e-01  6.8279e-03  1.3206e-03  7.0311e-04  0:03:43 1722
   279  6.8653e-03  1.5698e-03  1.9288e-03  3.4777e-01  6.8574e-03  1.3169e-03  7.0483e-04  0:02:59 1721
   280  6.9165e-03  1.5548e-03  1.9024e-03  3.4910e-01  6.9086e-03  1.3125e-03  7.0074e-04  0:02:23 1720
   281  6.9846e-03  1.5409e-03  1.8742e-03  3.4943e-01  6.9766e-03  1.3083e-03  6.9776e-04  0:07:38 1719
   282  7.0607e-03  1.5290e-03  1.8471e-03  3.4912e-01  7.0526e-03  1.3038e-03  6.9156e-04  0:06:06 1718
   283  7.1372e-03  1.5180e-03  1.8239e-03  3.4809e-01  7.1291e-03  1.2998e-03  6.8943e-04  0:04:53 1717
   284  7.2172e-03  1.5079e-03  1.8080e-03  3.4657e-01  7.2090e-03  1.2972e-03  6.8890e-04  0:03:54 1716
   285  7.2888e-03  1.4988e-03  1.7941e-03  3.4424e-01  7.2806e-03  1.2970e-03  6.8809e-04  0:03:07 1715
   286  7.3489e-03  1.4901e-03  1.7806e-03  3.4154e-01  7.3406e-03  1.2954e-03  6.8571e-04  0:02:30 1714

  iter  continuity  x-velocity  y-velocity  z-velocity      energy           k       omega     time/iter
   287  7.3749e-03  1.4810e-03  1.7683e-03  3.3849e-01  7.3666e-03  1.2919e-03  6.8176e-04  0:02:00 1713
   288  7.3364e-03  1.4718e-03  1.7606e-03  3.3499e-01  7.3282e-03  1.2871e-03  6.7700e-04  0:07:18 1712
   289  7.2620e-03  1.4618e-03  1.7572e-03  3.3098e-01  7.2539e-03  1.2827e-03  6.7319e-04  0:05:50 1711
   290  7.1386e-03  1.4523e-03  1.7592e-03  3.2685e-01  7.1307e-03  1.2781e-03  6.6797e-04  0:04:40 1710
   291  6.9720e-03  1.4433e-03  1.7674e-03  3.2193e-01  6.9643e-03  1.2728e-03  6.5763e-04  0:03:44 1709
   292  6.7704e-03  1.4343e-03  1.7812e-03  3.1645e-01  6.7629e-03  1.2650e-03  6.5205e-04  0:02:59 1708
   293  6.5383e-03  1.4255e-03  1.7943e-03  3.1034e-01  6.5312e-03  1.2570e-03  6.4795e-04  0:02:23 1707
   294  6.2833e-03  1.4166e-03  1.8097e-03  3.0368e-01  6.2765e-03  1.2502e-03  6.4355e-04  0:01:54 1706
   295  6.0095e-03  1.4084e-03  1.8260e-03  2.9686e-01  6.0030e-03  1.2449e-03  6.3737e-04  0:07:12 1705
   296  5.7233e-03  1.4016e-03  1.8449e-03  2.8965e-01  5.7172e-03  1.2419e-03  6.3001e-04  0:05:46 1704
   297  5.4267e-03  1.3965e-03  1.8662e-03  2.8224e-01  5.4210e-03  1.2396e-03  6.2584e-04  0:04:36 1703

  iter  continuity  x-velocity  y-velocity  z-velocity      energy           k       omega     time/iter
   298  5.1167e-03  1.3935e-03  1.8897e-03  2.7477e-01  5.1114e-03  1.2377e-03  6.1833e-04  0:03:41 1702
   299  4.7888e-03  1.3926e-03  1.9169e-03  2.6724e-01  4.7839e-03  1.2332e-03  6.1258e-04  0:02:57 1701
   300  4.4613e-03  1.3934e-03  1.9453e-03  2.5970e-01  4.4568e-03  1.2289e-03  6.0687e-04  0:02:21 1700
   301  4.1303e-03  1.3964e-03  1.9755e-03  2.5205e-01  4.1262e-03  1.2233e-03  6.0050e-04  0:07:33 1699
   302  3.8193e-03  1.4023e-03  2.0058e-03  2.4432e-01  3.8156e-03  1.2172e-03  5.9616e-04  0:06:02 1698
   303  3.5334e-03  1.4112e-03  2.0365e-03  2.3651e-01  3.5301e-03  1.2147e-03  5.9074e-04  0:04:49 1697
   304  3.2676e-03  1.4233e-03  2.0674e-03  2.2849e-01  3.2646e-03  1.2120e-03  5.9361e-04  0:03:51 1696
   305  3.0228e-03  1.4384e-03  2.0983e-03  2.2016e-01  3.0202e-03  1.2064e-03  5.9233e-04  0:03:05 1695
   306  2.7927e-03  1.4563e-03  2.1290e-03  2.1184e-01  2.7904e-03  1.1997e-03  5.8677e-04  0:02:28 1694
   307  2.5872e-03  1.4770e-03  2.1580e-03  2.0339e-01  2.5852e-03  1.1923e-03  5.7993e-04  0:01:58 1693
   308  2.4038e-03  1.5012e-03  2.1846e-03  1.9478e-01  2.4021e-03  1.1857e-03  5.7762e-04  0:07:13 1692

  iter  continuity  x-velocity  y-velocity  z-velocity      energy           k       omega     time/iter
   309  2.2473e-03  1.5287e-03  2.2094e-03  1.8594e-01  2.2460e-03  1.1824e-03  5.7772e-04  0:05:46 1691
   310  2.1236e-03  1.5591e-03  2.2325e-03  1.7707e-01  2.1226e-03  1.1821e-03  5.7837e-04  0:04:37 1690
   311  2.0358e-03  1.5918e-03  2.2549e-03  1.6808e-01  2.0351e-03  1.1810e-03  5.7782e-04  0:03:41 1689
   312  1.9963e-03  1.6263e-03  2.2753e-03  1.5903e-01  1.9959e-03  1.1785e-03  5.7686e-04  0:02:57 1688
   313  2.0084e-03  1.6622e-03  2.2926e-03  1.4988e-01  2.0081e-03  1.1743e-03  5.7492e-04  0:02:21 1687
   314  2.0903e-03  1.6992e-03  2.3054e-03  1.4069e-01  2.0901e-03  1.1699e-03  5.7328e-04  0:01:53 1686
   315  2.2377e-03  1.7363e-03  2.3124e-03  1.3151e-01  2.2374e-03  1.1669e-03  5.7164e-04  0:07:07 1685
   316  2.4379e-03  1.7737e-03  2.3164e-03  1.2234e-01  2.4373e-03  1.1648e-03  5.7267e-04  0:05:42 1684
   317  2.6796e-03  1.8109e-03  2.3179e-03  1.1322e-01  2.6788e-03  1.1654e-03  5.7481e-04  0:04:33 1683
   318  2.9518e-03  1.8473e-03  2.3159e-03  1.0416e-01  2.9508e-03  1.1695e-03  5.7621e-04  0:03:38 1682
   319  3.2474e-03  1.8826e-03  2.3107e-03  9.5248e-02  3.2461e-03  1.1721e-03  5.7803e-04  0:02:55 1681

  iter  continuity  x-velocity  y-velocity  z-velocity      energy           k       omega     time/iter
   320  3.5631e-03  1.9168e-03  2.3015e-03  8.6452e-02  3.5614e-03  1.1718e-03  5.7678e-04  0:02:20 1680
   321  3.8958e-03  1.9490e-03  2.2852e-03  7.7979e-02  3.8938e-03  1.1705e-03  5.7506e-04  0:07:27 1679
   322  4.2241e-03  1.9791e-03  2.2647e-03  6.9757e-02  4.2218e-03  1.1690e-03  5.7243e-04  0:05:58 1678
   323  4.5502e-03  2.0069e-03  2.2411e-03  6.1999e-02  4.5475e-03  1.1681e-03  5.6948e-04  0:04:46 1677
   324  4.8746e-03  2.0320e-03  2.2135e-03  5.4851e-02  4.8717e-03  1.1675e-03  5.6526e-04  0:03:49 1676
   325  5.1919e-03  2.0537e-03  2.1830e-03  4.8464e-02  5.1886e-03  1.1665e-03  5.6118e-04  0:03:03 1675
   326  5.4992e-03  2.0722e-03  2.1502e-03  4.3077e-02  5.4956e-03  1.1685e-03  5.5766e-04  0:02:26 1674
   327  5.7957e-03  2.0874e-03  2.1152e-03  3.8921e-02  5.7919e-03  1.1695e-03  5.5349e-04  0:01:57 1673
   328  6.0788e-03  2.0996e-03  2.0758e-03  3.6197e-02  6.0748e-03  1.1700e-03  5.4722e-04  0:07:08 1672
   329  6.3480e-03  2.1089e-03  2.0334e-03  3.5030e-02  6.3437e-03  1.1705e-03  5.4036e-04  0:05:42 1671
   330  6.6069e-03  2.1151e-03  1.9906e-03  3.5331e-02  6.6024e-03  1.1702e-03  5.3177e-04  0:04:33 1670

  iter  continuity  x-velocity  y-velocity  z-velocity      energy           k       omega     time/iter
   331  6.8537e-03  2.1185e-03  1.9491e-03  3.6879e-02  6.8490e-03  1.1695e-03  5.2401e-04  0:03:39 1669
   332  7.0877e-03  2.1192e-03  1.9047e-03  3.9374e-02  7.0828e-03  1.1689e-03  5.1920e-04  0:02:55 1668
   333  7.3088e-03  2.1164e-03  1.8591e-03  4.2419e-02  7.3037e-03  1.1708e-03  5.1221e-04  0:02:20 1667
   334  7.5162e-03  2.1105e-03  1.8184e-03  4.5744e-02  7.5110e-03  1.1753e-03  5.0680e-04  0:01:52 1666
   335  7.7115e-03  2.1017e-03  1.7789e-03  4.9192e-02  7.7062e-03  1.1818e-03  5.0385e-04  0:07:02 1665
   336  7.8896e-03  2.0898e-03  1.7391e-03  5.2637e-02  7.8842e-03  1.1879e-03  4.9948e-04  0:05:38 1664
   337  8.0546e-03  2.0758e-03  1.6986e-03  5.6014e-02  8.0491e-03  1.1931e-03  4.9432e-04  0:04:30 1663
   338  8.1911e-03  2.0599e-03  1.6585e-03  5.9210e-02  8.1855e-03  1.1971e-03  4.8794e-04  0:03:36 1662
   339  8.3110e-03  2.0418e-03  1.6231e-03  6.2159e-02  8.3054e-03  1.1986e-03  4.8069e-04  0:02:53 1661
   340  8.4125e-03  2.0217e-03  1.5921e-03  6.4845e-02  8.4067e-03  1.1977e-03  4.7769e-04  0:02:18 1660
   341  8.4926e-03  1.9997e-03  1.5616e-03  6.7261e-02  8.4869e-03  1.1977e-03  4.7491e-04  0:01:50 1659

  iter  continuity  x-velocity  y-velocity  z-velocity      energy           k       omega     time/iter
   342  8.5516e-03  1.9763e-03  1.5366e-03  6.9406e-02  8.5459e-03  1.1995e-03  4.7620e-04  0:07:00 1658
   343  8.5897e-03  1.9516e-03  1.5167e-03  7.1224e-02  8.5840e-03  1.2013e-03  4.7492e-04  0:05:36 1657
   344  8.6058e-03  1.9260e-03  1.4989e-03  7.2770e-02  8.6001e-03  1.2020e-03  4.7387e-04  0:04:28 1656
   345  8.5984e-03  1.8996e-03  1.4834e-03  7.4034e-02  8.5927e-03  1.2020e-03  4.7531e-04  0:03:35 1655
   346  8.5684e-03  1.8726e-03  1.4691e-03  7.5036e-02  8.5628e-03  1.1995e-03  4.7419e-04  0:02:52 1654
   347  8.5166e-03  1.8448e-03  1.4578e-03  7.5783e-02  8.5111e-03  1.1960e-03  4.7170e-04  0:07:48 1653
   348  8.4438e-03  1.8166e-03  1.4479e-03  7.6273e-02  8.4384e-03  1.1938e-03  4.7194e-04  0:06:14 1652
   349  8.3480e-03  1.7887e-03  1.4411e-03  7.6477e-02  8.3427e-03  1.1914e-03  4.7190e-04  0:04:59 1651
   350  8.2277e-03  1.7613e-03  1.4365e-03  7.6445e-02  8.2226e-03  1.1895e-03  4.6932e-04  0:03:59 1650
   351  8.0837e-03  1.7338e-03  1.4341e-03  7.6222e-02  8.0787e-03  1.1860e-03  4.6687e-04  0:03:11 1649
   352  7.9176e-03  1.7068e-03  1.4342e-03  7.5787e-02  7.9127e-03  1.1834e-03  4.6184e-04  0:02:33 1648

  iter  continuity  x-velocity  y-velocity  z-velocity      energy           k       omega     time/iter
   353  7.7357e-03  1.6798e-03  1.4363e-03  7.5154e-02  7.7310e-03  1.1815e-03  4.5922e-04  0:02:02 1647
   354  7.5437e-03  1.6532e-03  1.4384e-03  7.4301e-02  7.5392e-03  1.1820e-03  4.5661e-04  0:07:07 1646
   355  7.3405e-03  1.6267e-03  1.4408e-03  7.3257e-02  7.3361e-03  1.1814e-03  4.5400e-04  0:05:41 1645
   356  7.1242e-03  1.6001e-03  1.4443e-03  7.2031e-02  7.1200e-03  1.1803e-03  4.5148e-04  0:04:33 1644
   357  6.8955e-03  1.5740e-03  1.4482e-03  7.0616e-02  6.8916e-03  1.1778e-03  4.4835e-04  0:03:38 1643
   358  6.6582e-03  1.5489e-03  1.4534e-03  6.9036e-02  6.6544e-03  1.1749e-03  4.4635e-04  0:02:54 1642
   359  6.4143e-03  1.5244e-03  1.4597e-03  6.7296e-02  6.4107e-03  1.1718e-03  4.4585e-04  0:02:19 1641
   360  6.1646e-03  1.5004e-03  1.4660e-03  6.5434e-02  6.1611e-03  1.1680e-03  4.4053e-04  0:07:19 1640
   361  5.9083e-03  1.4773e-03  1.4722e-03  6.3456e-02  5.9051e-03  1.1644e-03  4.3942e-04  0:05:51 1639
   362  5.6424e-03  1.4551e-03  1.4771e-03  6.1414e-02  5.6394e-03  1.1620e-03  4.3686e-04  0:04:41 1638
   363  5.3677e-03  1.4336e-03  1.4807e-03  5.9325e-02  5.3649e-03  1.1596e-03  4.3374e-04  0:03:45 1637

  iter  continuity  x-velocity  y-velocity  z-velocity      energy           k       omega     time/iter
   364  5.0906e-03  1.4135e-03  1.4831e-03  5.7218e-02  5.0879e-03  1.1569e-03  4.2905e-04  0:03:00 1636
   365  4.8116e-03  1.3954e-03  1.4843e-03  5.5085e-02  4.8092e-03  1.1539e-03  4.2526e-04  0:02:24 1635
   366  4.5237e-03  1.3777e-03  1.4851e-03  5.2875e-02  4.5214e-03  1.1494e-03  4.2251e-04  0:01:55 1634
   367  4.2377e-03  1.3599e-03  1.4866e-03  5.0629e-02  4.2356e-03  1.1459e-03  4.2241e-04  0:06:58 1633
   368  3.9556e-03  1.3435e-03  1.4880e-03  4.8375e-02  3.9537e-03  1.1414e-03  4.1939e-04  0:05:34 1632
   369  3.6802e-03  1.3282e-03  1.4889e-03  4.6121e-02  3.6785e-03  1.1361e-03  4.1652e-04  0:04:27 1631
   370  3.4096e-03  1.3134e-03  1.4861e-03  4.3849e-02  3.4080e-03  1.1325e-03  4.1717e-04  0:03:34 1630
   371  3.1452e-03  1.2992e-03  1.4789e-03  4.1576e-02  3.1438e-03  1.1307e-03  4.1739e-04  0:02:51 1629
   372  2.8888e-03  1.2865e-03  1.4706e-03  3.9328e-02  2.8875e-03  1.1295e-03  4.1496e-04  0:02:17 1628
   373  2.6398e-03  1.2751e-03  1.4622e-03  3.7118e-02  2.6387e-03  1.1277e-03  4.1542e-04  0:07:15 1627
   374  2.4025e-03  1.2643e-03  1.4549e-03  3.4959e-02  2.4014e-03  1.1257e-03  4.1354e-04  0:05:48 1626

  iter  continuity  x-velocity  y-velocity  z-velocity      energy           k       omega     time/iter
   375  2.1839e-03  1.2532e-03  1.4480e-03  3.2866e-02  2.1829e-03  1.1226e-03  4.1122e-04  0:04:38 1625
   376  1.9901e-03  1.2425e-03  1.4385e-03  3.0875e-02  1.9892e-03  1.1151e-03  4.0811e-04  0:03:42 1624
   377  1.8279e-03  1.2321e-03  1.4272e-03  2.8990e-02  1.8270e-03  1.1069e-03  4.0582e-04  0:02:58 1623
   378  1.7007e-03  1.2220e-03  1.4102e-03  2.7201e-02  1.6998e-03  1.0994e-03  4.0277e-04  0:02:22 1622
   379  1.6206e-03  1.2120e-03  1.3925e-03  2.5563e-02  1.6196e-03  1.0908e-03  4.0216e-04  0:01:54 1621
   380  1.5837e-03  1.2024e-03  1.3721e-03  2.4093e-02  1.5826e-03  1.0817e-03  4.0266e-04  0:06:55 1620
   381  1.5828e-03  1.1932e-03  1.3511e-03  2.2864e-02  1.5816e-03  1.0735e-03  4.0252e-04  0:05:32 1619
   382  1.6166e-03  1.1834e-03  1.3301e-03  2.1843e-02  1.6152e-03  1.0659e-03  4.0158e-04  0:04:25 1618
   383  1.6705e-03  1.1742e-03  1.3068e-03  2.1083e-02  1.6690e-03  1.0589e-03  4.0084e-04  0:03:32 1617
   384  1.7461e-03  1.1645e-03  1.2852e-03  2.0615e-02  1.7445e-03  1.0514e-03  3.9926e-04  0:02:49 1616
   385  1.8397e-03  1.1545e-03  1.2630e-03  2.0518e-02  1.8379e-03  1.0445e-03  3.9821e-04  0:02:15 1615

  iter  continuity  x-velocity  y-velocity  z-velocity      energy           k       omega     time/iter
   386  1.9431e-03  1.1447e-03  1.2361e-03  2.0864e-02  1.9412e-03  1.0368e-03  3.9847e-04  0:01:48 1614
   387  2.0488e-03  1.1350e-03  1.2070e-03  2.1613e-02  2.0468e-03  1.0286e-03  3.9878e-04  0:06:49 1613
   388  2.1576e-03  1.1253e-03  1.1792e-03  2.2578e-02  2.1555e-03  1.0198e-03  3.9747e-04  0:05:27 1612
   389  2.2674e-03  1.1155e-03  1.1496e-03  2.3526e-02  2.2653e-03  1.0103e-03  3.9537e-04  0:04:22 1611
   390  2.3673e-03  1.1054e-03  1.1216e-03  2.4379e-02  2.3651e-03  1.0021e-03  3.9305e-04  0:03:29 1610
   391  2.4603e-03  1.0949e-03  1.0940e-03  2.5157e-02  2.4580e-03  9.9509e-04  3.9019e-04  0:02:47 1609
   392  2.5492e-03  1.0840e-03  1.0703e-03  2.5903e-02  2.5468e-03  9.8888e-04  3.8662e-04  0:02:14 1608
   393  2.6324e-03  1.0731e-03  1.0465e-03  2.6622e-02  2.6299e-03  9.8315e-04  3.8245e-04  0:01:47 1607
   394  2.7085e-03  1.0626e-03  1.0221e-03  2.7317e-02  2.7060e-03  9.7593e-04  3.7834e-04  0:06:47 1606
   395  2.7794e-03  1.0523e-03  9.9738e-04  2.7993e-02  2.7768e-03  9.6686e-04  3.7568e-04  0:05:25 1605
   396  2.8407e-03  1.0423e-03  9.7158e-04  2.8692e-02  2.8381e-03  9.5696e-04  3.7406e-04  0:04:20 1604

  iter  continuity  x-velocity  y-velocity  z-velocity      energy           k       omega     time/iter
   397  2.8921e-03  1.0324e-03  9.4751e-04  2.9435e-02  2.8895e-03  9.4630e-04  3.7189e-04  0:03:28 1603
   398  2.9357e-03  1.0224e-03  9.2661e-04  3.0219e-02  2.9330e-03  9.3682e-04  3.6931e-04  0:02:46 1602
   399  2.9713e-03  1.0126e-03  9.0722e-04  3.1061e-02  2.9686e-03  9.2791e-04  3.6579e-04  0:02:13 1601
   400  2.9995e-03  1.0029e-03  8.8911e-04  3.1960e-02  2.9968e-03  9.1992e-04  3.6103e-04  0:01:46 1600
   401  3.0224e-03  9.9326e-04  8.7384e-04  3.2911e-02  3.0197e-03  9.1274e-04  3.5679e-04  0:06:45 1599
   402  3.0399e-03  9.8391e-04  8.6103e-04  3.3911e-02  3.0372e-03  9.0429e-04  3.5270e-04  0:05:24 1598
   403  3.0516e-03  9.7482e-04  8.4948e-04  3.4942e-02  3.0489e-03  8.9482e-04  3.4899e-04  0:04:19 1597
   404  3.0567e-03  9.6582e-04  8.3987e-04  3.5989e-02  3.0540e-03  8.8462e-04  3.4393e-04  0:03:27 1596
   405  3.0552e-03  9.5683e-04  8.3238e-04  3.7048e-02  3.0525e-03  8.7483e-04  3.4102e-04  0:02:45 1595
   406  3.0488e-03  9.4784e-04  8.2495e-04  3.8124e-02  3.0461e-03  8.6527e-04  3.3930e-04  0:02:12 1594
   407  3.0387e-03  9.3881e-04  8.2043e-04  3.9216e-02  3.0360e-03  8.5622e-04  3.3693e-04  0:01:46 1593

  iter  continuity  x-velocity  y-velocity  z-velocity      energy           k       omega     time/iter
   408  3.0255e-03  9.3016e-04  8.1768e-04  4.0321e-02  3.0228e-03  8.4609e-04  3.3412e-04  0:06:43 1592
   409  3.0085e-03  9.2169e-04  8.1572e-04  4.1425e-02  3.0058e-03  8.3640e-04  3.3087e-04  0:05:22 1591
   410  2.9882e-03  9.1320e-04  8.1510e-04  4.2505e-02  2.9855e-03  8.2746e-04  3.2827e-04  0:04:18 1590
   411  2.9646e-03  9.0453e-04  8.1633e-04  4.3537e-02  2.9619e-03  8.1884e-04  3.2475e-04  0:03:26 1589
   412  2.9372e-03  8.9583e-04  8.1934e-04  4.4547e-02  2.9345e-03  8.0986e-04  3.2162e-04  0:02:45 1588
   413  2.9066e-03  8.8730e-04  8.2357e-04  4.5521e-02  2.9040e-03  8.0080e-04  3.1735e-04  0:02:12 1587
   414  2.8736e-03  8.7898e-04  8.2828e-04  4.6442e-02  2.8710e-03  7.9080e-04  3.1264e-04  0:07:02 1586
   415  2.8380e-03  8.7075e-04  8.3280e-04  4.7322e-02  2.8354e-03  7.8075e-04  3.0861e-04  0:05:38 1585
   416  2.7999e-03  8.6275e-04  8.3738e-04  4.8119e-02  2.7974e-03  7.7044e-04  3.0789e-04  0:04:30 1584
   417  2.7600e-03  8.5493e-04  8.4265e-04  4.8875e-02  2.7575e-03  7.5941e-04  3.0736e-04  0:03:36 1583
   418  2.7180e-03  8.4716e-04  8.4845e-04  4.9586e-02  2.7156e-03  7.4906e-04  3.0572e-04  0:02:53 1582

  iter  continuity  x-velocity  y-velocity  z-velocity      energy           k       omega     time/iter
   419  2.6744e-03  8.3937e-04  8.5450e-04  5.0216e-02  2.6720e-03  7.3894e-04  3.0249e-04  0:02:18 1581
   420  2.6293e-03  8.3180e-04  8.6133e-04  5.0814e-02  2.6269e-03  7.2946e-04  2.9937e-04  0:01:50 1580
   421  2.5828e-03  8.2452e-04  8.6894e-04  5.1372e-02  2.5804e-03  7.2016e-04  2.9400e-04  0:06:44 1579
   422  2.5350e-03  8.1733e-04  8.7658e-04  5.1848e-02  2.5327e-03  7.1191e-04  2.8887e-04  0:05:23 1578
   423  2.4870e-03  8.1046e-04  8.8369e-04  5.2243e-02  2.4847e-03  7.0354e-04  2.8615e-04  0:04:18 1577
   424  2.4375e-03  8.0437e-04  8.9037e-04  5.2585e-02  2.4352e-03  6.9598e-04  2.8117e-04  0:03:26 1576
   425  2.3858e-03  7.9895e-04  8.9689e-04  5.2812e-02  2.3836e-03  6.8788e-04  2.7528e-04  0:02:45 1575
   426  2.3327e-03  7.9384e-04  9.0280e-04  5.2961e-02  2.3305e-03  6.8050e-04  2.6982e-04  0:02:12 1574
   427  2.2774e-03  7.8885e-04  9.0877e-04  5.3061e-02  2.2753e-03  6.7379e-04  2.6539e-04  0:07:00 1573
   428  2.2211e-03  7.8415e-04  9.1486e-04  5.3131e-02  2.2190e-03  6.6651e-04  2.6103e-04  0:05:36 1572
   429  2.1633e-03  7.8013e-04  9.2112e-04  5.3153e-02  2.1612e-03  6.5837e-04  2.5888e-04  0:04:29 1571

  iter  continuity  x-velocity  y-velocity  z-velocity      energy           k       omega     time/iter
   430  2.1041e-03  7.7657e-04  9.2718e-04  5.3120e-02  2.1021e-03  6.5039e-04  2.5659e-04  0:03:35 1570
   431  2.0436e-03  7.7360e-04  9.3259e-04  5.3025e-02  2.0416e-03  6.4346e-04  2.5257e-04  0:02:52 1569
   432  1.9815e-03  7.7113e-04  9.3712e-04  5.2885e-02  1.9796e-03  6.3686e-04  2.4914e-04  0:02:17 1568
   433  1.9181e-03  7.6931e-04  9.4080e-04  5.2665e-02  1.9162e-03  6.3102e-04  2.4560e-04  0:01:50 1567
   434  1.8530e-03  7.6822e-04  9.4386e-04  5.2370e-02  1.8511e-03  6.2457e-04  2.4363e-04  0:06:41 1566
   435  1.7864e-03  7.6782e-04  9.4658e-04  5.1984e-02  1.7846e-03  6.1928e-04  2.4128e-04  0:05:21 1565
   436  1.7186e-03  7.6810e-04  9.4914e-04  5.1477e-02  1.7169e-03  6.1428e-04  2.3969e-04  0:04:16 1564
   437  1.6496e-03  7.6903e-04  9.5158e-04  5.0888e-02  1.6479e-03  6.0870e-04  2.3815e-04  0:03:25 1563
   438  1.5795e-03  7.7060e-04  9.5363e-04  5.0151e-02  1.5778e-03  6.0296e-04  2.3690e-04  0:02:44 1562
   439  1.5084e-03  7.7275e-04  9.5487e-04  4.9301e-02  1.5068e-03  5.9968e-04  2.3667e-04  0:07:23 1561
   440  1.4366e-03  7.7555e-04  9.5528e-04  4.8337e-02  1.4350e-03  5.9786e-04  2.3630e-04  0:05:54 1560

  iter  continuity  x-velocity  y-velocity  z-velocity      energy           k       omega     time/iter
   441  1.3645e-03  7.7896e-04  9.5476e-04  4.7275e-02  1.3630e-03  5.9614e-04  2.3654e-04  0:04:43 1559
   442  1.2928e-03  7.8281e-04  9.5328e-04  4.6121e-02  1.2914e-03  5.9483e-04  2.3651e-04  0:03:46 1558
   443  1.2220e-03  7.8710e-04  9.5088e-04  4.4867e-02  1.2207e-03  5.9328e-04  2.3681e-04  0:03:01 1557
   444  1.1528e-03  7.9178e-04  9.4768e-04  4.3528e-02  1.1516e-03  5.9216e-04  2.3667e-04  0:02:25 1556
   445  1.0866e-03  7.9680e-04  9.4374e-04  4.2103e-02  1.0854e-03  5.9132e-04  2.3655e-04  0:07:07 1555
   446  1.0246e-03  8.0210e-04  9.3920e-04  4.0586e-02  1.0236e-03  5.9118e-04  2.3754e-04  0:05:41 1554
   447  9.6856e-04  8.0764e-04  9.3366e-04  3.8985e-02  9.6766e-04  5.9128e-04  2.3864e-04  0:04:33 1553
   448  9.2030e-04  8.1333e-04  9.2711e-04  3.7291e-02  9.1953e-04  5.9262e-04  2.3947e-04  0:03:38 1552
   449  8.8169e-04  8.1902e-04  9.1956e-04  3.5512e-02  8.8106e-04  5.9391e-04  2.4045e-04  0:02:54 1551
   450  8.5453e-04  8.2460e-04  9.1119e-04  3.3650e-02  8.5405e-04  5.9468e-04  2.4142e-04  0:02:19 1550
   451  8.4015e-04  8.3005e-04  9.0208e-04  3.1733e-02  8.3982e-04  5.9433e-04  2.4247e-04  0:01:51 1549

  iter  continuity  x-velocity  y-velocity  z-velocity      energy           k       omega     time/iter
   452  8.3962e-04  8.3535e-04  8.9218e-04  2.9780e-02  8.3943e-04  5.9379e-04  2.4352e-04  0:06:39 1548
   453  8.5301e-04  8.4045e-04  8.8140e-04  2.7798e-02  8.5294e-04  5.9347e-04  2.4444e-04  0:05:19 1547
   454  8.7948e-04  8.4525e-04  8.6977e-04  2.5811e-02  8.7952e-04  5.9407e-04  2.4474e-04  0:04:15 1546
   455  9.1753e-04  8.4961e-04  8.5734e-04  2.3837e-02  9.1766e-04  5.9426e-04  2.4575e-04  0:03:24 1545
   456  9.6524e-04  8.5354e-04  8.4427e-04  2.1929e-02  9.6543e-04  5.9421e-04  2.4683e-04  0:02:43 1544
   457  1.0210e-03  8.5699e-04  8.3064e-04  2.0037e-02  1.0212e-03  5.9339e-04  2.4759e-04  0:02:10 1543
   458  1.0830e-03  8.5995e-04  8.1640e-04  1.8211e-02  1.0833e-03  5.9265e-04  2.4810e-04  0:06:53 1542
   459  1.1498e-03  8.6234e-04  8.0151e-04  1.6504e-02  1.1500e-03  5.9163e-04  2.4824e-04  0:05:30 1541
   460  1.2200e-03  8.6413e-04  7.8600e-04  1.4985e-02  1.2203e-03  5.9026e-04  2.4779e-04  0:04:24 1540
   461  1.2927e-03  8.6527e-04  7.6996e-04  1.3739e-02  1.2929e-03  5.8883e-04  2.4692e-04  0:03:31 1539
   462  1.3669e-03  8.6575e-04  7.5349e-04  1.2861e-02  1.3671e-03  5.8745e-04  2.4556e-04  0:02:49 1538

  iter  continuity  x-velocity  y-velocity  z-velocity      energy           k       omega     time/iter
   463  1.4417e-03  8.6555e-04  7.3668e-04  1.2421e-02  1.4419e-03  5.8578e-04  2.4395e-04  0:02:15 1537
   464  1.5163e-03  8.6465e-04  7.1959e-04  1.2457e-02  1.5165e-03  5.8371e-04  2.4184e-04  0:01:48 1536
   465  1.5903e-03  8.6301e-04  7.0230e-04  1.2963e-02  1.5904e-03  5.8125e-04  2.3943e-04  0:06:33 1535
   466  1.6627e-03  8.6065e-04  6.8483e-04  1.3892e-02  1.6628e-03  5.7856e-04  2.3643e-04  0:05:14 1534
   467  1.7320e-03  8.5756e-04  6.6711e-04  1.5141e-02  1.7320e-03  5.7584e-04  2.3293e-04  0:04:11 1533
   468  1.7985e-03  8.5378e-04  6.4926e-04  1.6652e-02  1.7985e-03  5.7335e-04  2.2934e-04  0:03:21 1532
   469  1.8620e-03  8.4931e-04  6.3134e-04  1.8343e-02  1.8620e-03  5.7042e-04  2.2556e-04  0:02:41 1531
   470  1.9222e-03  8.4415e-04  6.1346e-04  2.0141e-02  1.9222e-03  5.6746e-04  2.2203e-04  0:02:08 1530
   471  1.9788e-03  8.3832e-04  5.9569e-04  2.2001e-02  1.9787e-03  5.6459e-04  2.1874e-04  0:06:48 1529
   472  2.0317e-03  8.3186e-04  5.7809e-04  2.3876e-02  2.0316e-03  5.6165e-04  2.1537e-04  0:05:27 1528
   473  2.0810e-03  8.2478e-04  5.6077e-04  2.5765e-02  2.0809e-03  5.5853e-04  2.1185e-04  0:04:21 1527

  iter  continuity  x-velocity  y-velocity  z-velocity      energy           k       omega     time/iter
   474  2.1266e-03  8.1709e-04  5.4382e-04  2.7641e-02  2.1264e-03  5.5499e-04  2.0848e-04  0:03:29 1526
   475  2.1680e-03  8.0881e-04  5.2729e-04  2.9500e-02  2.1678e-03  5.5203e-04  2.0556e-04  0:02:47 1525
   476  2.2051e-03  7.9999e-04  5.1126e-04  3.1328e-02  2.2048e-03  5.4890e-04  2.0282e-04  0:02:13 1524
   477  2.2377e-03  7.9065e-04  4.9579e-04  3.3135e-02  2.2374e-03  5.4528e-04  1.9995e-04  0:01:47 1523
   478  2.2658e-03  7.8084e-04  4.8096e-04  3.4890e-02  2.2655e-03  5.4178e-04  1.9682e-04  0:06:30 1522
   479  2.2896e-03  7.7057e-04  4.6681e-04  3.6600e-02  2.2893e-03  5.3797e-04  1.9424e-04  0:05:12 1521
   480  2.3090e-03  7.5988e-04  4.5343e-04  3.8253e-02  2.3086e-03  5.3444e-04  1.9181e-04  0:04:09 1520
   481  2.3240e-03  7.4880e-04  4.4085e-04  3.9852e-02  2.3236e-03  5.3102e-04  1.8950e-04  0:03:19 1519
   482  2.3346e-03  7.3737e-04  4.2914e-04  4.1362e-02  2.3342e-03  5.2745e-04  1.8753e-04  0:02:39 1518
   483  2.3409e-03  7.2566e-04  4.1836e-04  4.2769e-02  2.3405e-03  5.2392e-04  1.8592e-04  0:02:07 1517
   484  2.3429e-03  7.1365e-04  4.0853e-04  4.4070e-02  2.3425e-03  5.2022e-04  1.8474e-04  0:06:45 1516

  iter  continuity  x-velocity  y-velocity  z-velocity      energy           k       omega     time/iter
   485  2.3406e-03  7.0138e-04  3.9969e-04  4.5269e-02  2.3401e-03  5.1660e-04  1.8408e-04  0:05:24 1515
   486  2.3337e-03  6.8886e-04  3.9189e-04  4.6331e-02  2.3333e-03  5.1294e-04  1.8355e-04  0:04:19 1514
   487  2.3226e-03  6.7614e-04  3.8518e-04  4.7293e-02  2.3221e-03  5.0974e-04  1.8347e-04  0:03:27 1513
   488  2.3070e-03  6.6328e-04  3.7961e-04  4.8196e-02  2.3065e-03  5.0649e-04  1.8328e-04  0:02:45 1512
   489  2.2869e-03  6.5031e-04  3.7522e-04  4.9000e-02  2.2864e-03  5.0264e-04  1.8372e-04  0:02:12 1511
   490  2.2623e-03  6.3726e-04  3.7200e-04  4.9744e-02  2.2618e-03  4.9838e-04  1.8465e-04  0:01:46 1510
   491  2.2332e-03  6.2419e-04  3.6999e-04  5.0465e-02  2.2327e-03  4.9386e-04  1.8561e-04  0:06:26 1509
   492  2.1996e-03  6.1114e-04  3.6922e-04  5.1172e-02  2.1991e-03  4.8928e-04  1.8700e-04  0:05:09 1508
   493  2.1615e-03  5.9811e-04  3.6969e-04  5.1865e-02  2.1610e-03  4.8479e-04  1.8786e-04  0:04:07 1507
   494  2.1189e-03  5.8513e-04  3.7135e-04  5.2578e-02  2.1184e-03  4.8074e-04  1.8695e-04  0:03:17 1506
   495  2.0721e-03  5.7221e-04  3.7413e-04  5.3300e-02  2.0716e-03  4.7667e-04  1.8313e-04  0:02:38 1505

  iter  continuity  x-velocity  y-velocity  z-velocity      energy           k       omega     time/iter
   496  2.0210e-03  5.5935e-04  3.7793e-04  5.4040e-02  2.0205e-03  4.7301e-04  1.7922e-04  0:02:06 1504
   497  1.9660e-03  5.4660e-04  3.8262e-04  5.4751e-02  1.9655e-03  4.6900e-04  1.7579e-04  0:01:41 1503
   498  1.9072e-03  5.3403e-04  3.8801e-04  5.5418e-02  1.9067e-03  4.6510e-04  1.7349e-04  0:06:21 1502
   499  1.8448e-03  5.2173e-04  3.9404e-04  5.6045e-02  1.8443e-03  4.6174e-04  1.7214e-04  0:05:05 1501
   500  1.7793e-03  5.0976e-04  4.0055e-04  5.6615e-02  1.7788e-03  4.5890e-04  1.7051e-04  0:04:04 1500
   501  1.7108e-03  4.9813e-04  4.0739e-04  5.7127e-02  1.7103e-03  4.5658e-04  1.6880e-04  0:03:15 1499
   502  1.6397e-03  4.8691e-04  4.1438e-04  5.7583e-02  1.6391e-03  4.5454e-04  1.6723e-04  0:02:36 1498
   503  1.5660e-03  4.7609e-04  4.2138e-04  5.7998e-02  1.5655e-03  4.5291e-04  1.6606e-04  0:02:04 1497
   504  1.4902e-03  4.6571e-04  4.2827e-04  5.8355e-02  1.4896e-03  4.5147e-04  1.6559e-04  0:06:39 1496
   505  1.4126e-03  4.5582e-04  4.3495e-04  5.8666e-02  1.4121e-03  4.4976e-04  1.6510e-04  0:05:19 1495
   506  1.3335e-03  4.4642e-04  4.4128e-04  5.8910e-02  1.3329e-03  4.4852e-04  1.6375e-04  0:04:15 1494

  iter  continuity  x-velocity  y-velocity  z-velocity      energy           k       omega     time/iter
   507  1.2530e-03  4.3743e-04  4.4714e-04  5.9111e-02  1.2524e-03  4.4725e-04  1.6303e-04  0:03:24 1493
   508  1.1715e-03  4.2891e-04  4.5248e-04  5.9216e-02  1.1709e-03  4.4595e-04  1.6251e-04  0:02:43 1492
   509  1.0897e-03  4.2087e-04  4.5729e-04  5.9255e-02  1.0891e-03  4.4487e-04  1.6252e-04  0:02:10 1491
   510  1.0086e-03  4.1325e-04  4.6145e-04  5.9210e-02  1.0079e-03  4.4395e-04  1.6139e-04  0:01:44 1490
   511  9.2893e-04  4.0602e-04  4.6491e-04  5.9086e-02  9.2826e-04  4.4298e-04  1.6029e-04  0:06:21 1489
   512  8.5203e-04  3.9913e-04  4.6759e-04  5.8902e-02  8.5131e-04  4.4167e-04  1.5988e-04  0:05:05 1488
   513  7.7910e-04  3.9260e-04  4.6948e-04  5.8631e-02  7.7833e-04  4.4034e-04  1.5951e-04  0:04:04 1487
   514  7.1210e-04  3.8642e-04  4.7056e-04  5.8281e-02  7.1127e-04  4.3902e-04  1.5908e-04  0:03:15 1486
   515  6.5373e-04  3.8062e-04  4.7084e-04  5.7840e-02  6.5282e-04  4.3751e-04  1.5870e-04  0:02:36 1485
   516  6.0683e-04  3.7510e-04  4.7029e-04  5.7333e-02  6.0584e-04  4.3605e-04  1.5771e-04  0:02:04 1484
   517  5.7492e-04  3.6983e-04  4.6891e-04  5.6739e-02  5.7386e-04  4.3452e-04  1.5680e-04  0:01:39 1483

  iter  continuity  x-velocity  y-velocity  z-velocity      energy           k       omega     time/iter
   518  5.6073e-04  3.6479e-04  4.6668e-04  5.6056e-02  5.5962e-04  4.3311e-04  1.5616e-04  0:06:16 1482
   519  5.6546e-04  3.5998e-04  4.6352e-04  5.5286e-02  5.6432e-04  4.3159e-04  1.5553e-04  0:05:01 1481
   520  5.8834e-04  3.5541e-04  4.5929e-04  5.4437e-02  5.8720e-04  4.2985e-04  1.5458e-04  0:04:00 1480
   521  6.2582e-04  3.5101e-04  4.5409e-04  5.3494e-02  6.2470e-04  4.2787e-04  1.5346e-04  0:03:12 1479
   522  6.7478e-04  3.4670e-04  4.4789e-04  5.2445e-02  6.7369e-04  4.2571e-04  1.5235e-04  0:02:34 1478
   523  7.3254e-04  3.4248e-04  4.4099e-04  5.1294e-02  7.3149e-04  4.2330e-04  1.5110e-04  0:02:03 1477
   524  7.9599e-04  3.3827e-04  4.3337e-04  5.0039e-02  7.9497e-04  4.2093e-04  1.4988e-04  0:06:33 1476
   525  8.6276e-04  3.3404e-04  4.2494e-04  4.8710e-02  8.6176e-04  4.1846e-04  1.4861e-04  0:05:14 1475
   526  9.3090e-04  3.2973e-04  4.1576e-04  4.7280e-02  9.2992e-04  4.1599e-04  1.4702e-04  0:04:11 1474
   527  9.9851e-04  3.2531e-04  4.0586e-04  4.5754e-02  9.9755e-04  4.1350e-04  1.4504e-04  0:03:21 1473
   528  1.0652e-03  3.2076e-04  3.9535e-04  4.4131e-02  1.0642e-03  4.1095e-04  1.4285e-04  0:02:41 1472

  iter  continuity  x-velocity  y-velocity  z-velocity      energy           k       omega     time/iter
   529  1.1302e-03  3.1607e-04  3.8432e-04  4.2413e-02  1.1293e-03  4.0832e-04  1.4081e-04  0:02:08 1471
   530  1.1931e-03  3.1122e-04  3.7288e-04  4.0604e-02  1.1921e-03  4.0565e-04  1.3881e-04  0:01:43 1470
   531  1.2531e-03  3.0624e-04  3.6116e-04  3.8703e-02  1.2521e-03  4.0284e-04  1.3674e-04  0:06:16 1469
   532  1.3098e-03  3.0107e-04  3.4933e-04  3.6712e-02  1.3089e-03  3.9979e-04  1.3474e-04  0:05:01 1468
   533  1.3628e-03  2.9571e-04  3.3754e-04  3.4638e-02  1.3619e-03  3.9664e-04  1.3292e-04  0:04:00 1467
   534  1.4119e-03  2.9017e-04  3.2586e-04  3.2488e-02  1.4110e-03  3.9342e-04  1.3112e-04  0:03:12 1466
   535  1.4571e-03  2.8453e-04  3.1458e-04  3.0270e-02  1.4562e-03  3.9010e-04  1.2922e-04  0:02:34 1465
   536  1.4983e-03  2.7881e-04  3.0381e-04  2.7981e-02  1.4974e-03  3.8686e-04  1.2734e-04  0:02:03 1464
   537  1.5354e-03  2.7301e-04  2.9374e-04  2.5676e-02  1.5345e-03  3.8348e-04  1.2554e-04  0:01:38 1463
   538  1.5683e-03  2.6716e-04  2.8440e-04  2.3355e-02  1.5674e-03  3.8006e-04  1.2408e-04  0:06:11 1462
   539  1.5972e-03  2.6130e-04  2.7607e-04  2.1022e-02  1.5962e-03  3.7650e-04  1.2255e-04  0:04:56 1461

  iter  continuity  x-velocity  y-velocity  z-velocity      energy           k       omega     time/iter
   540  1.6221e-03  2.5542e-04  2.6892e-04  1.8705e-02  1.6212e-03  3.7286e-04  1.2130e-04  0:03:57 1460
   541  1.6430e-03  2.4947e-04  2.6315e-04  1.6447e-02  1.6420e-03  3.6943e-04  1.2019e-04  0:03:09 1459
   542  1.6597e-03  2.4356e-04  2.5884e-04  1.4304e-02  1.6588e-03  3.6589e-04  1.1932e-04  0:02:31 1458
   543  1.6724e-03  2.3774e-04  2.5593e-04  1.2361e-02  1.6714e-03  3.6222e-04  1.1849e-04  0:02:01 1457
   544  1.6809e-03  2.3209e-04  2.5445e-04  1.0758e-02  1.6800e-03  3.5852e-04  1.1771e-04  0:06:28 1456
   545  1.6855e-03  2.2662e-04  2.5433e-04  9.6645e-03  1.6846e-03  3.5477e-04  1.1726e-04  0:05:10 1455
   546  1.6863e-03  2.2139e-04  2.5557e-04  9.2352e-03  1.6854e-03  3.5110e-04  1.1698e-04  0:04:08 1454
   547  1.6836e-03  2.1640e-04  2.5804e-04  9.5172e-03  1.6826e-03  3.4714e-04  1.1670e-04  0:03:18 1453
   548  1.6773e-03  2.1170e-04  2.6166e-04  1.0454e-02  1.6764e-03  3.4311e-04  1.1709e-04  0:02:38 1452
   549  1.6679e-03  2.0733e-04  2.6628e-04  1.1868e-02  1.6670e-03  3.3894e-04  1.1752e-04  0:02:07 1451
   550  1.6555e-03  2.0334e-04  2.7175e-04  1.3585e-02  1.6546e-03  3.3477e-04  1.1789e-04  0:01:41 1450

  iter  continuity  x-velocity  y-velocity  z-velocity      energy           k       omega     time/iter
   551  1.6403e-03  1.9973e-04  2.7793e-04  1.5486e-02  1.6394e-03  3.3075e-04  1.1780e-04  0:06:11 1449
   552  1.6223e-03  1.9648e-04  2.8468e-04  1.7486e-02  1.6214e-03  3.2677e-04  1.1720e-04  0:04:56 1448
   553  1.6017e-03  1.9360e-04  2.9185e-04  1.9491e-02  1.6008e-03  3.2276e-04  1.1609e-04  0:03:57 1447
   554  1.5787e-03  1.9110e-04  2.9928e-04  2.1385e-02  1.5779e-03  3.1891e-04  1.1465e-04  0:03:09 1446
   555  1.5534e-03  1.8899e-04  3.0683e-04  2.3219e-02  1.5526e-03  3.1539e-04  1.1281e-04  0:02:31 1445
   556  1.5260e-03  1.8727e-04  3.1441e-04  2.4974e-02  1.5251e-03  3.1188e-04  1.1058e-04  0:02:01 1444
   557  1.4965e-03  1.8592e-04  3.2190e-04  2.6661e-02  1.4956e-03  3.0820e-04  1.0875e-04  0:01:37 1443
   558  1.4651e-03  1.8495e-04  3.2924e-04  2.8269e-02  1.4643e-03  3.0436e-04  1.0708e-04  0:06:06 1442
   559  1.4320e-03  1.8428e-04  3.3635e-04  2.9782e-02  1.4312e-03  3.0058e-04  1.0434e-04  0:04:52 1441
   560  1.3975e-03  1.8409e-04  3.4313e-04  3.1196e-02  1.3967e-03  2.9708e-04  1.0260e-04  0:03:54 1440
   561  1.3614e-03  1.8433e-04  3.4955e-04  3.2508e-02  1.3606e-03  2.9354e-04  1.0175e-04  0:03:07 1439

  iter  continuity  x-velocity  y-velocity  z-velocity      energy           k       omega     time/iter
   562  1.3239e-03  1.8495e-04  3.5560e-04  3.3699e-02  1.3231e-03  2.8993e-04  1.0050e-04  0:02:29 1438
   563  1.2852e-03  1.8592e-04  3.6123e-04  3.4746e-02  1.2844e-03  2.8625e-04  9.8798e-05  0:01:59 1437
   564  1.2456e-03  1.8721e-04  3.6646e-04  3.5680e-02  1.2449e-03  2.8269e-04  9.7929e-05  0:06:23 1436
   565  1.2050e-03  1.8882e-04  3.7126e-04  3.6495e-02  1.2042e-03  2.7918e-04  9.7370e-05  0:05:06 1435
   566  1.1632e-03  1.9074e-04  3.7558e-04  3.7184e-02  1.1625e-03  2.7568e-04  9.6845e-05  0:04:05 1434
   567  1.1205e-03  1.9293e-04  3.7941e-04  3.7738e-02  1.1197e-03  2.7230e-04  9.6146e-05  0:03:16 1433
   568  1.0768e-03  1.9538e-04  3.8273e-04  3.8146e-02  1.0761e-03  2.6887e-04  9.5750e-05  0:02:36 1432
   569  1.0323e-03  1.9800e-04  3.8554e-04  3.8415e-02  1.0316e-03  2.6545e-04  9.5187e-05  0:02:05 1431
   570  9.8708e-04  2.0072e-04  3.8785e-04  3.8550e-02  9.8639e-04  2.6209e-04  9.4627e-05  0:01:40 1430
   571  9.4136e-04  2.0347e-04  3.8964e-04  3.8551e-02  9.4068e-04  2.5879e-04  9.4004e-05  0:06:06 1429
   572  8.9518e-04  2.0621e-04  3.9093e-04  3.8416e-02  8.9451e-04  2.5554e-04  9.3273e-05  0:04:52 1428

  iter  continuity  x-velocity  y-velocity  z-velocity      energy           k       omega     time/iter
   573  8.4871e-04  2.0891e-04  3.9172e-04  3.8159e-02  8.4805e-04  2.5240e-04  9.2533e-05  0:03:54 1427
   574  8.0209e-04  2.1155e-04  3.9201e-04  3.7785e-02  8.0144e-04  2.4938e-04  9.1825e-05  0:03:07 1426
   575  7.5552e-04  2.1411e-04  3.9182e-04  3.7301e-02  7.5487e-04  2.4661e-04  9.1011e-05  0:02:29 1425
   576  7.0926e-04  2.1658e-04  3.9114e-04  3.6719e-02  7.0862e-04  2.4408e-04  9.0328e-05  0:01:59 1424
   577  6.6366e-04  2.1897e-04  3.8997e-04  3.6042e-02  6.6302e-04  2.4172e-04  8.9489e-05  0:01:35 1423
   578  6.1906e-04  2.2123e-04  3.8834e-04  3.5268e-02  6.1842e-04  2.3950e-04  8.8591e-05  0:06:01 1422
   579  5.7605e-04  2.2342e-04  3.8625e-04  3.4415e-02  5.7542e-04  2.3748e-04  8.7971e-05  0:04:48 1421
   580  5.3536e-04  2.2552e-04  3.8369e-04  3.3487e-02  5.3472e-04  2.3560e-04  8.7223e-05  0:03:51 1420
   581  4.9769e-04  2.2752e-04  3.8066e-04  3.2489e-02  4.9705e-04  2.3372e-04  8.6626e-05  0:03:04 1419
   582  4.6387e-04  2.2941e-04  3.7719e-04  3.1420e-02  4.6322e-04  2.3185e-04  8.5988e-05  0:02:27 1418
   583  4.3484e-04  2.3119e-04  3.7332e-04  3.0305e-02  4.3420e-04  2.3005e-04  8.5287e-05  0:01:58 1417

  iter  continuity  x-velocity  y-velocity  z-velocity      energy           k       omega     time/iter
   584  4.1153e-04  2.3285e-04  3.6904e-04  2.9147e-02  4.1088e-04  2.2835e-04  8.4452e-05  0:01:34 1416
   585  3.9476e-04  2.3441e-04  3.6440e-04  2.7953e-02  3.9413e-04  2.2691e-04  8.3782e-05  0:05:58 1415
   586  3.8512e-04  2.3588e-04  3.5944e-04  2.6727e-02  3.8449e-04  2.2550e-04  8.3275e-05  0:04:46 1414
   587  3.8282e-04  2.3724e-04  3.5413e-04  2.5476e-02  3.8221e-04  2.2424e-04  8.2716e-05  0:03:49 1413
   588  3.8764e-04  2.3845e-04  3.4849e-04  2.4205e-02  3.8706e-04  2.2302e-04  8.2272e-05  0:03:03 1412
   589  3.9894e-04  2.3950e-04  3.4254e-04  2.2922e-02  3.9838e-04  2.2185e-04  8.1673e-05  0:02:26 1411
   590  4.1583e-04  2.4040e-04  3.3630e-04  2.1639e-02  4.1530e-04  2.2068e-04  8.0756e-05  0:01:57 1410
   591  4.3721e-04  2.4112e-04  3.2978e-04  2.0355e-02  4.3671e-04  2.1962e-04  8.0055e-05  0:01:34 1409
   592  4.6193e-04  2.4168e-04  3.2300e-04  1.9072e-02  4.6145e-04  2.1862e-04  7.9156e-05  0:05:56 1408
   593  4.8903e-04  2.4212e-04  3.1600e-04  1.7796e-02  4.8857e-04  2.1758e-04  7.8034e-05  0:04:45 1407
   594  5.1774e-04  2.4242e-04  3.0881e-04  1.6532e-02  5.1731e-04  2.1658e-04  7.6943e-05  0:03:48 1406

  iter  continuity  x-velocity  y-velocity  z-velocity      energy           k       omega     time/iter
   595  5.4748e-04  2.4257e-04  3.0147e-04  1.5285e-02  5.4706e-04  2.1553e-04  7.5908e-05  0:03:02 1405
   596  5.7777e-04  2.4257e-04  2.9401e-04  1.4057e-02  5.7735e-04  2.1460e-04  7.4719e-05  0:02:26 1404
   597  6.0821e-04  2.4240e-04  2.8644e-04  1.2874e-02  6.0781e-04  2.1370e-04  7.3339e-05  0:01:56 1403
   598  6.3849e-04  2.4208e-04  2.7879e-04  1.1728e-02  6.3810e-04  2.1264e-04  7.1875e-05  0:06:13 1402
   599  6.6831e-04  2.4162e-04  2.7107e-04  1.0622e-02  6.6792e-04  2.1142e-04  7.0748e-05  0:04:59 1401
   600  6.9739e-04  2.4102e-04  2.6333e-04  9.5663e-03  6.9700e-04  2.1010e-04  6.9459e-05  0:03:59 1400
   601  7.2555e-04  2.4027e-04  2.5557e-04  8.5712e-03  7.2516e-04  2.0869e-04  6.8166e-05  0:03:11 1399
   602  7.5260e-04  2.3936e-04  2.4784e-04  7.6533e-03  7.5222e-04  2.0720e-04  6.7033e-05  0:02:33 1398
   603  7.7840e-04  2.3830e-04  2.4015e-04  6.8237e-03  7.7801e-04  2.0559e-04  6.6040e-05  0:02:02 1397
   604  8.0285e-04  2.3710e-04  2.3252e-04  6.1046e-03  8.0246e-04  2.0389e-04  6.5313e-05  0:01:37 1396
   605  8.2559e-04  2.3575e-04  2.2497e-04  5.5225e-03  8.2520e-04  2.0208e-04  6.4527e-05  0:05:57 1395

  iter  continuity  x-velocity  y-velocity  z-velocity      energy           k       omega     time/iter
   606  8.4687e-04  2.3428e-04  2.1754e-04  5.0994e-03  8.4649e-04  2.0012e-04  6.3915e-05  0:04:45 1394
   607  8.6671e-04  2.3267e-04  2.1029e-04  4.8580e-03  8.6632e-04  1.9811e-04  6.3357e-05  0:03:48 1393
   608  8.8508e-04  2.3091e-04  2.0324e-04  4.8062e-03  8.8469e-04  1.9596e-04  6.2842e-05  0:03:02 1392
   609  9.0195e-04  2.2900e-04  1.9643e-04  4.9309e-03  9.0156e-04  1.9367e-04  6.2362e-05  0:02:26 1391
   610  9.1729e-04  2.2695e-04  1.8988e-04  5.2064e-03  9.1690e-04  1.9132e-04  6.1926e-05  0:01:57 1390
   611  9.3102e-04  2.2477e-04  1.8362e-04  5.5944e-03  9.3063e-04  1.8884e-04  6.1580e-05  0:01:33 1389
   612  9.4307e-04  2.2245e-04  1.7769e-04  6.0592e-03  9.4268e-04  1.8632e-04  6.1267e-05  0:05:52 1388
   613  9.5339e-04  2.1999e-04  1.7210e-04  6.5740e-03  9.5300e-04  1.8387e-04  6.0951e-05  0:04:41 1387
   614  9.6191e-04  2.1742e-04  1.6688e-04  7.1052e-03  9.6152e-04  1.8157e-04  6.0739e-05  0:03:45 1386
   615  9.6858e-04  2.1472e-04  1.6206e-04  7.6432e-03  9.6819e-04  1.7929e-04  6.0663e-05  0:03:00 1385
   616  9.7336e-04  2.1191e-04  1.5766e-04  8.1832e-03  9.7297e-04  1.7705e-04  6.0756e-05  0:02:24 1384

  iter  continuity  x-velocity  y-velocity  z-velocity      energy           k       omega     time/iter
   617  9.7624e-04  2.0900e-04  1.5372e-04  8.7174e-03  9.7585e-04  1.7484e-04  6.0921e-05  0:01:55 1383
   618  9.7723e-04  2.0600e-04  1.5026e-04  9.2441e-03  9.7684e-04  1.7260e-04  6.1177e-05  0:06:08 1382
   619  9.7636e-04  2.0290e-04  1.4731e-04  9.7583e-03  9.7597e-04  1.7035e-04  6.1490e-05  0:04:54 1381
   620  9.7367e-04  1.9973e-04  1.4487e-04  1.0254e-02  9.7328e-04  1.6817e-04  6.1847e-05  0:03:55 1380
   621  9.6921e-04  1.9647e-04  1.4296e-04  1.0731e-02  9.6882e-04  1.6599e-04  6.2311e-05  0:03:08 1379
   622  9.6304e-04  1.9315e-04  1.4159e-04  1.1193e-02  9.6265e-04  1.6376e-04  6.2883e-05  0:02:30 1378
   623  9.5523e-04  1.8977e-04  1.4075e-04  1.1637e-02  9.5485e-04  1.6155e-04  6.3551e-05  0:02:00 1377
   624  9.4585e-04  1.8634e-04  1.4042e-04  1.2066e-02  9.4547e-04  1.5936e-04  6.4217e-05  0:01:36 1376
   625  9.3497e-04  1.8287e-04  1.4058e-04  1.2477e-02  9.3459e-04  1.5718e-04  6.4830e-05  0:05:52 1375
   626  9.2265e-04  1.7936e-04  1.4118e-04  1.2871e-02  9.2227e-04  1.5500e-04  6.5300e-05  0:04:41 1374
[...]
  1838  6.1042e-07  1.8558e-07  3.2604e-07  2.8680e-05  6.1011e-07  2.2554e-07  1.1006e-07  0:00:26  162
  1839  5.6433e-07  1.8983e-07  3.2702e-07  2.8276e-05  5.6403e-07  2.2447e-07  1.0967e-07  0:00:21  161
  1840  5.2133e-07  1.9420e-07  3.2742e-07  2.7827e-05  5.2104e-07  2.2342e-07  1.0923e-07  0:00:16  160
  1841  4.8224e-07  1.9865e-07  3.2725e-07  2.7333e-05  4.8197e-07  2.2222e-07  1.0865e-07  0:00:13  159
  1842  4.4798e-07  2.0313e-07  3.2649e-07  2.6797e-05  4.4772e-07  2.2086e-07  1.0811e-07  0:00:10  158
  1843  4.1953e-07  2.0759e-07  3.2515e-07  2.6221e-05  4.1929e-07  2.1933e-07  1.0752e-07  0:00:08  157
  1844  3.9790e-07  2.1198e-07  3.2321e-07  2.5606e-05  3.9767e-07  2.1770e-07  1.0675e-07  0:00:38  156
  1845  3.8395e-07  2.1623e-07  3.2069e-07  2.4955e-05  3.8374e-07  2.1600e-07  1.0584e-07  0:00:30  155
  1846  3.7825e-07  2.2030e-07  3.1760e-07  2.4270e-05  3.7805e-07  2.1429e-07  1.0484e-07  0:00:24  154
  1847  3.8085e-07  2.2413e-07  3.1397e-07  2.3552e-05  3.8066e-07  2.1247e-07  1.0375e-07  0:00:19  153
  1848  3.9130e-07  2.2768e-07  3.0982e-07  2.2804e-05  3.9113e-07  2.1061e-07  1.0254e-07  0:00:15  152

  iter  continuity  x-velocity  y-velocity  z-velocity      energy           k       omega     time/iter
  1849  4.0870e-07  2.3091e-07  3.0520e-07  2.2029e-05  4.0854e-07  2.0870e-07  1.0127e-07  0:00:12  151
  1850  4.3193e-07  2.3379e-07  3.0015e-07  2.1228e-05  4.3178e-07  2.0680e-07  1.0000e-07  0:00:10  150
  1851  4.5983e-07  2.3631e-07  2.9472e-07  2.0403e-05  4.5968e-07  2.0498e-07  9.8808e-08  0:00:08  149
  1852  4.9130e-07  2.3845e-07  2.8896e-07  1.9558e-05  4.9116e-07  2.0308e-07  9.7711e-08  0:00:36  148
  1853  5.2542e-07  2.4022e-07  2.8292e-07  1.8696e-05  5.2528e-07  2.0134e-07  9.6563e-08  0:00:28  147
  1854  5.6143e-07  2.4161e-07  2.7665e-07  1.7823e-05  5.6129e-07  1.9993e-07  9.5303e-08  0:00:22  146
  1855  5.9868e-07  2.4264e-07  2.7018e-07  1.6943e-05  5.9853e-07  1.9892e-07  9.3878e-08  0:00:18  145
  1856  6.3663e-07  2.4331e-07  2.6353e-07  1.6061e-05  6.3648e-07  1.9856e-07  9.2344e-08  0:00:14  144
  1857  6.7484e-07  2.4364e-07  2.5673e-07  1.5185e-05  6.7468e-07  1.9865e-07  9.0700e-08  0:00:11  143
  1858  7.1289e-07  2.4363e-07  2.4978e-07  1.4321e-05  7.1273e-07  1.9901e-07  8.8930e-08  0:00:09  142
  1859  7.5042e-07  2.4332e-07  2.4271e-07  1.3476e-05  7.5025e-07  1.9949e-07  8.7194e-08  0:00:35  141

  iter  continuity  x-velocity  y-velocity  z-velocity      energy           k       omega     time/iter
  1860  7.8709e-07  2.4270e-07  2.3550e-07  1.2654e-05  7.8691e-07  1.9996e-07  8.5603e-08  0:00:28  140
  1861  8.2259e-07  2.4181e-07  2.2818e-07  1.1882e-05  8.2240e-07  2.0044e-07  8.3950e-08  0:00:22  139
  1862  8.5663e-07  2.4065e-07  2.2076e-07  1.1159e-05  8.5643e-07  2.0080e-07  8.2232e-08  0:00:18  138
  1863  8.8896e-07  2.3923e-07  2.1324e-07  1.0495e-05  8.8875e-07  2.0108e-07  8.0549e-08  0:00:14  137
  1864  9.1938e-07  2.3757e-07  2.0566e-07  9.9066e-06  9.1917e-07  2.0129e-07  7.8854e-08  0:00:11  136
  1865  9.4775e-07  2.3566e-07  1.9804e-07  9.4106e-06  9.4752e-07  2.0128e-07  7.7213e-08  0:00:09  135
  1866  9.7394e-07  2.3352e-07  1.9042e-07  9.0228e-06  9.7371e-07  2.0105e-07  7.5708e-08  0:00:07  134
  1867  9.9790e-07  2.3114e-07  1.8282e-07  8.7590e-06  9.9767e-07  2.0081e-07  7.4350e-08  0:00:32  133
  1868  1.0196e-06  2.2851e-07  1.7529e-07  8.6270e-06  1.0194e-06  2.0041e-07  7.3151e-08  0:00:26  132
  1869  1.0391e-06  2.2563e-07  1.6790e-07  8.6242e-06  1.0389e-06  1.9988e-07  7.2073e-08  0:00:20  131
  1870  1.0564e-06  2.2251e-07  1.6072e-07  8.7463e-06  1.0562e-06  1.9933e-07  7.1051e-08  0:00:16  130

  iter  continuity  x-velocity  y-velocity  z-velocity      energy           k       omega     time/iter
  1871  1.0716e-06  2.1914e-07  1.5381e-07  8.9818e-06  1.0713e-06  1.9872e-07  7.0258e-08  0:00:13  129
  1872  1.0847e-06  2.1553e-07  1.4729e-07  9.3178e-06  1.0845e-06  1.9795e-07  6.9540e-08  0:00:10  128
  1873  1.0958e-06  2.1170e-07  1.4127e-07  9.7399e-06  1.0956e-06  1.9728e-07  6.8947e-08  0:00:08  127
  1874  1.1050e-06  2.0766e-07  1.3586e-07  1.0229e-05  1.1047e-06  1.9659e-07  6.8484e-08  0:00:06  126
  1875  1.1122e-06  2.0343e-07  1.3117e-07  1.0775e-05  1.1119e-06  1.9574e-07  6.8180e-08  0:00:30  125
  1876  1.1175e-06  1.9904e-07  1.2733e-07  1.1359e-05  1.1172e-06  1.9477e-07  6.8006e-08  0:00:24  124
  1877  1.1209e-06  1.9453e-07  1.2440e-07  1.1969e-05  1.1206e-06  1.9370e-07  6.7863e-08  0:00:19  123
  1878  1.1224e-06  1.8990e-07  1.2245e-07  1.2570e-05  1.1221e-06  1.9282e-07  6.7681e-08  0:00:15  122
  1879  1.1221e-06  1.8521e-07  1.2148e-07  1.3164e-05  1.1218e-06  1.9195e-07  6.7552e-08  0:00:12  121
  1880  1.1198e-06  1.8046e-07  1.2148e-07  1.3759e-05  1.1195e-06  1.9126e-07  6.7652e-08  0:00:09  120
  1881  1.1156e-06  1.7568e-07  1.2238e-07  1.4352e-05  1.1153e-06  1.9073e-07  6.7767e-08  0:00:08  119

  iter  continuity  x-velocity  y-velocity  z-velocity      energy           k       omega     time/iter
  1882  1.1094e-06  1.7090e-07  1.2412e-07  1.4944e-05  1.1091e-06  1.9031e-07  6.7984e-08  0:00:06  118
  1883  1.1012e-06  1.6614e-07  1.2658e-07  1.5526e-05  1.1009e-06  1.8979e-07  6.8364e-08  0:00:05  117
  1884  1.0909e-06  1.6143e-07  1.2968e-07  1.6096e-05  1.0906e-06  1.8917e-07  6.8795e-08  0:00:27  116
  1885  1.0786e-06  1.5678e-07  1.3331e-07  1.6650e-05  1.0783e-06  1.8833e-07  6.9212e-08  0:00:21  115
  1886  1.0642e-06  1.5223e-07  1.3739e-07  1.7181e-05  1.0639e-06  1.8737e-07  6.9656e-08  0:00:17  114
  1887  1.0477e-06  1.4780e-07  1.4183e-07  1.7689e-05  1.0474e-06  1.8626e-07  7.0185e-08  0:00:13  113
  1888  1.0292e-06  1.4351e-07  1.4654e-07  1.8168e-05  1.0289e-06  1.8504e-07  7.0729e-08  0:00:11  112
  1889  1.0087e-06  1.3939e-07  1.5143e-07  1.8614e-05  1.0084e-06  1.8382e-07  7.1183e-08  0:00:08  111
  1890  9.8625e-07  1.3548e-07  1.5644e-07  1.9031e-05  9.8598e-07  1.8260e-07  7.1531e-08  0:00:07  110
  1891  9.6206e-07  1.3179e-07  1.6149e-07  1.9417e-05  9.6180e-07  1.8136e-07  7.1866e-08  0:00:05  109
  1892  9.3625e-07  1.2838e-07  1.6652e-07  1.9770e-05  9.3600e-07  1.8028e-07  7.2223e-08  0:00:26  108

  iter  continuity  x-velocity  y-velocity  z-velocity      energy           k       omega     time/iter
  1893  9.0897e-07  1.2526e-07  1.7147e-07  2.0088e-05  9.0873e-07  1.7916e-07  7.2539e-08  0:00:20  107
  1894  8.8040e-07  1.2248e-07  1.7629e-07  2.0368e-05  8.8016e-07  1.7805e-07  7.2852e-08  0:00:16  106
  1895  8.5069e-07  1.2009e-07  1.8093e-07  2.0609e-05  8.5045e-07  1.7694e-07  7.3152e-08  0:00:13  105
  1896  8.2000e-07  1.1812e-07  1.8536e-07  2.0810e-05  8.1977e-07  1.7584e-07  7.3446e-08  0:00:10  104
  1897  7.8848e-07  1.1660e-07  1.8954e-07  2.0971e-05  7.8826e-07  1.7481e-07  7.3689e-08  0:00:08  103
  1898  7.5625e-07  1.1557e-07  1.9346e-07  2.1091e-05  7.5603e-07  1.7374e-07  7.3858e-08  0:00:06  102
  1899  7.2342e-07  1.1502e-07  1.9708e-07  2.1173e-05  7.2321e-07  1.7261e-07  7.3955e-08  0:00:05  101
  1900  6.9010e-07  1.1495e-07  2.0039e-07  2.1217e-05  6.8990e-07  1.7148e-07  7.3970e-08  0:00:24  100
  1901  6.5639e-07  1.1533e-07  2.0336e-07  2.1224e-05  6.5619e-07  1.7024e-07  7.3951e-08  0:00:19   99
  1902  6.2237e-07  1.1613e-07  2.0599e-07  2.1197e-05  6.2218e-07  1.6904e-07  7.3909e-08  0:00:15   98
  1903  5.8817e-07  1.1729e-07  2.0827e-07  2.1135e-05  5.8798e-07  1.6783e-07  7.3834e-08  0:00:12   97

  iter  continuity  x-velocity  y-velocity  z-velocity      energy           k       omega     time/iter
  1904  5.5388e-07  1.1874e-07  2.1019e-07  2.1041e-05  5.5370e-07  1.6651e-07  7.3732e-08  0:00:09   96
  1905  5.1964e-07  1.2042e-07  2.1175e-07  2.0915e-05  5.1947e-07  1.6532e-07  7.3589e-08  0:00:07   95
  1906  4.8563e-07  1.2228e-07  2.1296e-07  2.0758e-05  4.8546e-07  1.6429e-07  7.3396e-08  0:00:06   94
  1907  4.5204e-07  1.2425e-07  2.1383e-07  2.0569e-05  4.5187e-07  1.6361e-07  7.3171e-08  0:00:05   93
  1908  4.1913e-07  1.2630e-07  2.1438e-07  2.0352e-05  4.1897e-07  1.6302e-07  7.2953e-08  0:00:04   92
  1909  3.8725e-07  1.2836e-07  2.1463e-07  2.0105e-05  3.8710e-07  1.6243e-07  7.2714e-08  0:00:21   91
  1910  3.5686e-07  1.3042e-07  2.1459e-07  1.9832e-05  3.5671e-07  1.6166e-07  7.2463e-08  0:00:17   90
  1911  3.2857e-07  1.3245e-07  2.1426e-07  1.9532e-05  3.2842e-07  1.6067e-07  7.2222e-08  0:00:13   89
  1912  3.0316e-07  1.3443e-07  2.1367e-07  1.9208e-05  3.0301e-07  1.5962e-07  7.1879e-08  0:00:10   88
  1913  2.8159e-07  1.3633e-07  2.1282e-07  1.8860e-05  2.8144e-07  1.5842e-07  7.1512e-08  0:00:08   87
  1914  2.6494e-07  1.3816e-07  2.1169e-07  1.8490e-05  2.6479e-07  1.5708e-07  7.1090e-08  0:00:07   86

  iter  continuity  x-velocity  y-velocity  z-velocity      energy           k       omega     time/iter
  1915  2.5425e-07  1.3991e-07  2.1029e-07  1.8100e-05  2.5409e-07  1.5572e-07  7.0660e-08  0:00:05   85
  1916  2.5024e-07  1.4157e-07  2.0860e-07  1.7691e-05  2.5008e-07  1.5425e-07  7.0185e-08  0:00:04   84
  1917  2.5310e-07  1.4314e-07  2.0663e-07  1.7265e-05  2.5294e-07  1.5272e-07  6.9666e-08  0:00:20   83
  1918  2.6234e-07  1.4462e-07  2.0435e-07  1.6823e-05  2.6218e-07  1.5109e-07  6.9087e-08  0:00:16   82
  1919  2.7700e-07  1.4601e-07  2.0177e-07  1.6369e-05  2.7683e-07  1.4940e-07  6.8472e-08  0:00:12   81
  1920  2.9585e-07  1.4731e-07  1.9888e-07  1.5904e-05  2.9568e-07  1.4764e-07  6.7774e-08  0:00:10   80
  1921  3.1773e-07  1.4851e-07  1.9568e-07  1.5430e-05  3.1756e-07  1.4579e-07  6.6984e-08  0:00:08   79
  1922  3.4164e-07  1.4961e-07  1.9218e-07  1.4951e-05  3.4147e-07  1.4400e-07  6.6117e-08  0:00:06   78
  1923  3.6677e-07  1.5058e-07  1.8837e-07  1.4471e-05  3.6659e-07  1.4247e-07  6.5200e-08  0:00:05   77
  1924  3.9252e-07  1.5141e-07  1.8427e-07  1.3993e-05  3.9234e-07  1.4128e-07  6.4228e-08  0:00:04   76
  1925  4.1846e-07  1.5208e-07  1.7989e-07  1.3522e-05  4.1827e-07  1.4034e-07  6.3238e-08  0:00:03   75

  iter  continuity  x-velocity  y-velocity  z-velocity      energy           k       omega     time/iter
  1926  4.4427e-07  1.5257e-07  1.7524e-07  1.3062e-05  4.4408e-07  1.3973e-07  6.2212e-08  0:00:17   74
  1927  4.6973e-07  1.5286e-07  1.7036e-07  1.2617e-05  4.6954e-07  1.3917e-07  6.1156e-08  0:00:14   73
  1928  4.9470e-07  1.5294e-07  1.6526e-07  1.2192e-05  4.9450e-07  1.3862e-07  6.0027e-08  0:00:11   72
  1929  5.1905e-07  1.5278e-07  1.5998e-07  1.1793e-05  5.1884e-07  1.3814e-07  5.8871e-08  0:00:08   71
  1930  5.4269e-07  1.5239e-07  1.5457e-07  1.1422e-05  5.4249e-07  1.3769e-07  5.7769e-08  0:00:07   70
  1931  5.6557e-07  1.5176e-07  1.4907e-07  1.1092e-05  5.6535e-07  1.3728e-07  5.6837e-08  0:00:05   69
  1932  5.8760e-07  1.5089e-07  1.4354e-07  1.0800e-05  5.8738e-07  1.3715e-07  5.5924e-08  0:00:04   68
  1933  6.0874e-07  1.4978e-07  1.3803e-07  1.0550e-05  6.0852e-07  1.3703e-07  5.5012e-08  0:00:03   67
  1934  6.2892e-07  1.4844e-07  1.3260e-07  1.0349e-05  6.2870e-07  1.3691e-07  5.4017e-08  0:00:03   66
  1935  6.4810e-07  1.4689e-07  1.2728e-07  1.0199e-05  6.4787e-07  1.3676e-07  5.3028e-08  0:00:15   65
  1936  6.6619e-07  1.4514e-07  1.2214e-07  1.0103e-05  6.6596e-07  1.3650e-07  5.2118e-08  0:00:12   64

  iter  continuity  x-velocity  y-velocity  z-velocity      energy           k       omega     time/iter
  1937  6.8315e-07  1.4319e-07  1.1721e-07  1.0061e-05  6.8291e-07  1.3614e-07  5.1220e-08  0:00:09   63
  1938  6.9890e-07  1.4107e-07  1.1253e-07  1.0072e-05  6.9865e-07  1.3575e-07  5.0323e-08  0:00:07   62
  1939  7.1335e-07  1.3878e-07  1.0814e-07  1.0134e-05  7.1311e-07  1.3527e-07  4.9513e-08  0:00:06   61
  1940  7.2643e-07  1.3635e-07  1.0408e-07  1.0246e-05  7.2619e-07  1.3473e-07  4.8779e-08  0:00:05   60
  1941  7.3806e-07  1.3378e-07  1.0038e-07  1.0401e-05  7.3781e-07  1.3404e-07  4.8105e-08  0:00:04   59
  1942  7.4816e-07  1.3109e-07  9.7083e-08  1.0599e-05  7.4791e-07  1.3327e-07  4.7584e-08  0:00:03   58
  1943  7.5666e-07  1.2829e-07  9.4228e-08  1.0832e-05  7.5640e-07  1.3258e-07  4.7269e-08  0:00:02   57
  1944  7.6350e-07  1.2541e-07  9.1852e-08  1.1096e-05  7.6324e-07  1.3180e-07  4.7040e-08  0:00:13   56
  1945  7.6865e-07  1.2245e-07  8.9988e-08  1.1384e-05  7.6839e-07  1.3102e-07  4.6898e-08  0:00:10   55
  1946  7.7209e-07  1.1941e-07  8.8659e-08  1.1692e-05  7.7182e-07  1.3022e-07  4.6841e-08  0:00:08   54
  1947  7.7383e-07  1.1633e-07  8.7879e-08  1.2009e-05  7.7357e-07  1.2945e-07  4.6869e-08  0:00:06   53

  iter  continuity  x-velocity  y-velocity  z-velocity      energy           k       omega     time/iter
  1948  7.7391e-07  1.1319e-07  8.7645e-08  1.2331e-05  7.7365e-07  1.2872e-07  4.6898e-08  0:00:05   52
  1949  7.7238e-07  1.1002e-07  8.7943e-08  1.2658e-05  7.7212e-07  1.2811e-07  4.6920e-08  0:00:04   51
  1950  7.6930e-07  1.0683e-07  8.8747e-08  1.2990e-05  7.6904e-07  1.2755e-07  4.7074e-08  0:00:03   50
  1951  7.6476e-07  1.0363e-07  9.0023e-08  1.3326e-05  7.6450e-07  1.2711e-07  4.7312e-08  0:00:02   49
  1952  7.5883e-07  1.0045e-07  9.1729e-08  1.3660e-05  7.5857e-07  1.2662e-07  4.7595e-08  0:00:11   48
  1953  7.5158e-07  9.7321e-08  9.3819e-08  1.3992e-05  7.5132e-07  1.2608e-07  4.7939e-08  0:00:09   47
  1954  7.4309e-07  9.4265e-08  9.6244e-08  1.4318e-05  7.4283e-07  1.2546e-07  4.8276e-08  0:00:07   46
  1955  7.3341e-07  9.1321e-08  9.8954e-08  1.4636e-05  7.3316e-07  1.2488e-07  4.8636e-08  0:00:06   45
  1956  7.2261e-07  8.8525e-08  1.0190e-07  1.4943e-05  7.2235e-07  1.2426e-07  4.9015e-08  0:00:04   44
  1957  7.1071e-07  8.5913e-08  1.0502e-07  1.5238e-05  7.1046e-07  1.2364e-07  4.9389e-08  0:00:03   43
  1958  6.9776e-07  8.3517e-08  1.0826e-07  1.5515e-05  6.9752e-07  1.2304e-07  4.9750e-08  0:00:03   42

  iter  continuity  x-velocity  y-velocity  z-velocity      energy           k       omega     time/iter
  1959  6.8379e-07  8.1366e-08  1.1159e-07  1.5778e-05  6.8355e-07  1.2234e-07  5.0062e-08  0:00:02   41
  1960  6.6881e-07  7.9483e-08  1.1494e-07  1.6024e-05  6.6857e-07  1.2155e-07  5.0347e-08  0:00:02   40
  1961  6.5284e-07  7.7884e-08  1.1828e-07  1.6252e-05  6.5261e-07  1.2074e-07  5.0618e-08  0:00:09   39
  1962  6.3591e-07  7.6579e-08  1.2158e-07  1.6461e-05  6.3568e-07  1.1988e-07  5.0830e-08  0:00:07   38
  1963  6.1801e-07  7.5570e-08  1.2481e-07  1.6649e-05  6.1778e-07  1.1913e-07  5.0985e-08  0:00:05   37
  1964  5.9916e-07  7.4856e-08  1.2794e-07  1.6816e-05  5.9894e-07  1.1834e-07  5.1120e-08  0:00:04   36
  1965  5.7939e-07  7.4431e-08  1.3097e-07  1.6960e-05  5.7918e-07  1.1755e-07  5.1286e-08  0:00:03   35
  1966  5.5872e-07  7.4286e-08  1.3388e-07  1.7081e-05  5.5851e-07  1.1680e-07  5.1445e-08  0:00:03   34
  1967  5.3719e-07  7.4407e-08  1.3666e-07  1.7178e-05  5.3698e-07  1.1599e-07  5.1607e-08  0:00:02   33
  1968  5.1485e-07  7.4782e-08  1.3931e-07  1.7251e-05  5.1465e-07  1.1508e-07  5.1749e-08  0:00:02   32
  1969  4.9179e-07  7.5392e-08  1.4180e-07  1.7300e-05  4.9160e-07  1.1421e-07  5.1867e-08  0:00:07   31

  iter  continuity  x-velocity  y-velocity  z-velocity      energy           k       omega     time/iter
  1970  4.6812e-07  7.6222e-08  1.4413e-07  1.7328e-05  4.6793e-07  1.1333e-07  5.1939e-08  0:00:06   30
  1971  4.4396e-07  7.7256e-08  1.4628e-07  1.7333e-05  4.4378e-07  1.1246e-07  5.2004e-08  0:00:04   29
  1972  4.1947e-07  7.8475e-08  1.4824e-07  1.7319e-05  4.1929e-07  1.1161e-07  5.2063e-08  0:00:03   28
  1973  3.9483e-07  7.9865e-08  1.4999e-07  1.7285e-05  3.9466e-07  1.1071e-07  5.2091e-08  0:00:03   27
  1974  3.7023e-07  8.1410e-08  1.5152e-07  1.7232e-05  3.7006e-07  1.0982e-07  5.2078e-08  0:00:02   26
  1975  3.4588e-07  8.3095e-08  1.5281e-07  1.7161e-05  3.4573e-07  1.0886e-07  5.2035e-08  0:00:02   25
  1976  3.2203e-07  8.4907e-08  1.5384e-07  1.7073e-05  3.2187e-07  1.0797e-07  5.1942e-08  0:00:01   24
  1977  2.9889e-07  8.6829e-08  1.5461e-07  1.6969e-05  2.9875e-07  1.0723e-07  5.1795e-08  0:00:01   23
  1978  2.7676e-07  8.8842e-08  1.5512e-07  1.6849e-05  2.7662e-07  1.0661e-07  5.1617e-08  0:00:05   22
  1979  2.5591e-07  9.0924e-08  1.5534e-07  1.6715e-05  2.5578e-07  1.0609e-07  5.1396e-08  0:00:04   21
  1980  2.3669e-07  9.3051e-08  1.5529e-07  1.6568e-05  2.3656e-07  1.0561e-07  5.1123e-08  0:00:03   20

  iter  continuity  x-velocity  y-velocity  z-velocity      energy           k       omega     time/iter
  1981  2.1949e-07  9.5194e-08  1.5496e-07  1.6408e-05  2.1937e-07  1.0510e-07  5.0827e-08  0:00:02   19
  1982  2.0476e-07  9.7326e-08  1.5434e-07  1.6237e-05  2.0464e-07  1.0448e-07  5.0501e-08  0:00:02   18
  1983  1.9298e-07  9.9415e-08  1.5345e-07  1.6055e-05  1.9287e-07  1.0378e-07  5.0152e-08  0:00:01   17
  1984  1.8463e-07  1.0143e-07  1.5228e-07  1.5863e-05  1.8452e-07  1.0304e-07  4.9746e-08  0:00:01   16
  1985  1.8008e-07  1.0335e-07  1.5086e-07  1.5662e-05  1.7998e-07  1.0222e-07  4.9319e-08  0:00:01   15
  1986  1.7952e-07  1.0515e-07  1.4919e-07  1.5453e-05  1.7943e-07  1.0133e-07  4.8877e-08  0:00:01   14
  1987  1.8286e-07  1.0682e-07  1.4729e-07  1.5238e-05  1.8278e-07  1.0047e-07  4.8393e-08  0:00:03   13
  1988  1.8979e-07  1.0832e-07  1.4518e-07  1.5017e-05  1.8971e-07  9.9522e-08  4.7858e-08  0:00:02   12
  1989  1.9981e-07  1.0967e-07  1.4288e-07  1.4791e-05  1.9973e-07  9.8548e-08  4.7316e-08  0:00:02   11
  1990  2.1235e-07  1.1085e-07  1.4042e-07  1.4563e-05  2.1227e-07  9.7527e-08  4.6835e-08  0:00:01   10
  1991  2.2686e-07  1.1185e-07  1.3781e-07  1.4334e-05  2.2679e-07  9.6627e-08  4.6331e-08  0:00:01    9

  iter  continuity  x-velocity  y-velocity  z-velocity      energy           k       omega     time/iter
  1992  2.4287e-07  1.1269e-07  1.3507e-07  1.4106e-05  2.4280e-07  9.5808e-08  4.5759e-08  0:00:01    8
  1993  2.5995e-07  1.1335e-07  1.3223e-07  1.3881e-05  2.5987e-07  9.5013e-08  4.5176e-08  0:00:02    7
  1994  2.7774e-07  1.1386e-07  1.2928e-07  1.3661e-05  2.7767e-07  9.4467e-08  4.4536e-08  0:00:01    6
  1995  2.9597e-07  1.1420e-07  1.2623e-07  1.3448e-05  2.9589e-07  9.4119e-08  4.3826e-08  0:00:01    5
  1996  3.1436e-07  1.1439e-07  1.2310e-07  1.3245e-05  3.1428e-07  9.3968e-08  4.3087e-08  0:00:01    4
  1997  3.3270e-07  1.1444e-07  1.1987e-07  1.3054e-05  3.3261e-07  9.4102e-08  4.2312e-08  0:00:00    3
  1998  3.5078e-07  1.1434e-07  1.1657e-07  1.2877e-05  3.5069e-07  9.4317e-08  4.1557e-08  0:00:00    2
  1999  3.6843e-07  1.1412e-07  1.1318e-07  1.2714e-05  3.6834e-07  9.4461e-08  4.0794e-08  0:00:00    1
  2000  3.8550e-07  1.1376e-07  1.0971e-07  1.2569e-05  3.8540e-07  9.4600e-08  4.0044e-08  0:00:00    0

> 
adjoint/                parallel/               server/
define/                 parametric-study/       solve/
display/                plot/                   surface/
exit                    preferences/            turbo-workflow/
file/                   print-license-usage     views/
mesh/                   report/

> /file/write-case-data project1
Fast-loading "C:\PROGRA~1\ANSYSI~1\v231\fluent\fluent23.1.0\\addons\afd\lib\hdfio.bin"
Done.

Writing to Engs-30669:"C:\Users\kebl7595\Desktop\CFD\Runs\Flap\Shallower Aspect Ratio\9 degrees\project1.cas.h5" in NODE0 mode and compression level 1 ...
       19422 cells,     1 zone  ...
       65325 faces,     7 zones ...
       26676 nodes,     1 zone  ...
  Done.
Done.

Writing to Engs-30669:"C:\Users\kebl7595\Desktop\CFD\Runs\Flap\Shallower Aspect Ratio\9 degrees\project1.dat.h5" in NODE0 mode and compression level 1 ...
  Writing results.
Done.

> /file/export/ascii "./surface.dat" wing () no pressure mach-number quit no

Writing "./surface.dat"...

Writing information to ascii file ...
Done.


> /report/forces/wall-forces y -0.15643 -0.98769 0 y "Lift"

> /report/forces/wall-forces y 0.98769 -0.15643 0 y "Drag"

> /exit

Posting ANSYS Product Improvement Program performance data 
Done.
Auto-Transcript Stop Time:  11:42:27, 22 May 2024 GMT Daylight Time 
Total Transcript Time: 5 Minute 9 Second.
