Auto-Transcript Start Time:  11:37:33, 22 May 2024 GMT Daylight Time 
Current Directory: "C:\Users\kebl7595\Desktop\CFD\Runs\Flap\Shallower Aspect Ratio\12 degrees"

              Welcome to ANSYS Fluent 2023 R1

              Copyright 1987-2023 ANSYS, Inc. All Rights Reserved.
              Unauthorized use, distribution or duplication is prohibited.
              This product is subject to U.S. laws governing export and re-export.
              For full Legal Notice, see documentation.

Build Time: Nov 28 2022 09:52:02 EST  Build Id: 10208  
 
Connected License Server List:	1055@ansyslic.eng.ox.ac.uk

*********************************************
Info: Your license enables 4-way parallel execution.
For faster simulations, please start the application with the appropriate parallel options.
*********************************************


     --------------------------------------------------------------
     This is an academic version of ANSYS FLUENT. Usage of this product
     license is limited to the terms and conditions specified in your ANSYS
     license form, additional terms section.
     --------------------------------------------------------------
Host spawning Node 0 on machine "Engs-30669" (win64).

------------------------------------------------------------------------------------
ID    Hostname    Core  O.S.         PID    Vendor                                 
------------------------------------------------------------------------------------
n0    Engs-30669  1/32  Windows-x64  46364  13th Gen Intel(R) Core(TM) i9-13900    
host  Engs-30669        Windows-x64  29988  13th Gen Intel(R) Core(TM) i9-13900    

MPI Option Selected: intel
------------------------------------------------------------------------------------

Cleanup script file is C:\\Users\\kebl7595\\Desktop\\CFD\\Runs\\Flap\\Shallower Aspect Ratio\\12 degrees\\cleanup-fluent-Engs-30669-29988.bat

Posting ANSYS Product Improvement Program startup data
Done.

Reading journal file C:/Users/kebl7595/Desktop/CFD/Runs/Flap/Shallower Aspect Ratio/12 degrees/project1.jou...

> /file/set-batch-options no no no 

> 
define/                 parametric-study/       solve/
display/                plot/                   surface/
exit                    preferences/            switch-to-meshing-mode
file/                   print-license-usage     turbo-workflow/
mesh/                   report/                 views/
parallel/               server/

> /file/import/cgns/mesh  "./project1.cgns"
Engs-30669 has other FLUENT parallel processes running.                       Process affinity not being set.

Importing "./project1.cgns"

Opening library "C:\\PROGRA~1\\ANSYSI~1\\v231\\fluent\\fluent23.1.0\\vki\\win64\\devtools4.4.6.dll"... done.

Read    26676 nodes
   19422 hexahedral cells, zone  1
   14118 quadrilateral wall faces, zone  2.
   50733 quadrilateral interior faces, zone  3.
     474 quadrilateral interface faces, zone  4.

Building...
     mesh
     materials,
     interface,
     domains,
     zones,
	interface-default_subface
	default_interior-1
	default_subface
	default
     parallel,
The automatic selection for flux type has changed to Rhie-Chow: momentum based.

Done.


> 
adjoint/                parallel/               server/
define/                 parametric-study/       solve/
display/                plot/                   surface/
exit                    preferences/            turbo-workflow/
file/                   print-license-usage     views/
mesh/                   report/

> /define/models/solver/density-based-implicit yes

> 
adjoint/                parallel/               server/
define/                 parametric-study/       solve/
display/                plot/                   surface/
exit                    preferences/            turbo-workflow/
file/                   print-license-usage     views/
mesh/                   report/

> /define/models/energy? yes yes invalid command [yes]
yes

> /define/models/viscous/kw-standard? yes

> 
adjoint/                parallel/               server/
define/                 parametric-study/       solve/
display/                plot/                   surface/
exit                    preferences/            turbo-workflow/
file/                   print-license-usage     views/
mesh/                   report/

> /define/materials/change-create air air air is a fluid
yes 
Density
ideal-gas no data required.

no no no no no no

> 
adjoint/                parallel/               server/
define/                 parametric-study/       solve/
display/                plot/                   surface/
exit                    preferences/            turbo-workflow/
file/                   print-license-usage     views/
mesh/                   report/

> /mesh/modify-zones/sep-face-zone-angle 2 90 yes

 6474 faces in contiguous region 0
 348 faces in contiguous region 1
 618 faces in contiguous region 2
 6474 faces in contiguous region 3
 204 faces in contiguous region 4
 Separates zone 2 into 5 zone(s).
Updating new zone information...
   created new zone default_subface:009 from default_subface
   created new zone default_subface:008 from default_subface
   created new zone default_subface:007 from default_subface
   created new zone default_subface:006 from default_subface
done.

> 
adjoint/                parallel/               server/
define/                 parametric-study/       solve/
display/                plot/                   surface/
exit                    preferences/            turbo-workflow/
file/                   print-license-usage     views/
mesh/                   report/

> /define/boundary-conditions/zone-name  6 wing

> /define/boundary-conditions/zone-name  2 sym1

> /define/boundary-conditions/zone-name  8 sym2

> 
adjoint/                parallel/               server/
define/                 parametric-study/       solve/
display/                plot/                   surface/
exit                    preferences/            turbo-workflow/
file/                   print-license-usage     views/
mesh/                   report/

> /define/boundary-conditions/zone-name  7 far1

> /define/boundary-conditions/zone-name 9 far2

> 
adjoint/                parallel/               server/
define/                 parametric-study/       solve/
display/                plot/                   surface/
exit                    preferences/            turbo-workflow/
file/                   print-license-usage     views/
mesh/                   report/

> /define/boundary-conditions/zone-type  7 pressure-far-field

> /define/boundary-conditions/zone-type 9 pressure-far-field

> /define/boundary-conditions/zone-type  2 symmetry

> /define/boundary-conditions/zone-type  8 symmetry

> 
adjoint/                parallel/               server/
define/                 parametric-study/       solve/
display/                plot/                   surface/
exit                    preferences/            turbo-workflow/
file/                   print-license-usage     views/
mesh/                   report/

> /define/boundary-conditions/pressure-far-field (far2 far1)
far1 no 0 no 0.1 no 300 yes no 0.97815 no -0.20791 no 0. no yes 5 0.02

> /define/boundary-conditions/pressure-far-field (far2 far1)
far2 no 0 no 0.1 no 300 yes no 0.97815 no -0.20791 no 0. no yes 5 0.02

> 
adjoint/                parallel/               server/
define/                 parametric-study/       solve/
display/                plot/                   surface/
exit                    preferences/            turbo-workflow/
file/                   print-license-usage     views/
mesh/                   report/

> /solve/initialize/compute-defaults/pressure-far-field (far2 far1)
far1

> /solve/initialize/initialize-flow

> 
adjoint/                parallel/               server/
define/                 parametric-study/       solve/
display/                plot/                   surface/
exit                    preferences/            turbo-workflow/
file/                   print-license-usage     views/
mesh/                   report/

> /solve/monitors/residual/convergence-criteria 1.e-9 1.e-9 1.e-9 1.e-9 1.e-9 1.e-9 1.e-9

> /solve/iterate 2000

  iter  continuity  x-velocity  y-velocity  z-velocity      energy           k       omega     time/iter
     1  1.0000e+00  1.0000e+00  1.0000e+00  1.0000e+00  1.0000e+00  5.3036e-02  4.9131e-02  0:00:00 1999
     2  5.3049e-01  5.5519e-01  4.8585e-01  1.0000e+00  5.3071e-01  4.7280e-02  3.8809e-02  0:33:18 1998
     3  2.8888e-01  3.1509e-01  2.9324e-01  1.0000e+00  2.8890e-01  4.2533e-02  3.4259e-02  0:26:38 1997
     4  1.7724e-01  1.7258e-01  2.1546e-01  9.0557e-01  1.7715e-01  3.8614e-02  3.0959e-02  0:21:17 1996
     5  1.3206e-01  1.0967e-01  1.7578e-01  9.1843e-01  1.3194e-01  3.5367e-02  2.8703e-02  0:17:01 1995
     6  1.1360e-01  7.9611e-02  1.5631e-01  9.7998e-01  1.1349e-01  3.2538e-02  2.6785e-02  0:13:37 1994
     7  9.9811e-02  6.5827e-02  1.4748e-01  1.0077e+00  9.9733e-02  3.0047e-02  2.5018e-02  0:17:32 1993
     8  9.0945e-02  5.9110e-02  1.4331e-01  9.8719e-01  9.0889e-02  2.7876e-02  2.3420e-02  0:14:01 1992
     9  8.3570e-02  5.6415e-02  1.4004e-01  9.4858e-01  8.3524e-02  2.6009e-02  2.2030e-02  0:11:12 1991
    10  7.7019e-02  5.4837e-02  1.3611e-01  9.4639e-01  7.6971e-02  2.4381e-02  2.0812e-02  0:08:58 1990
    11  7.2088e-02  5.4585e-02  1.3150e-01  9.1598e-01  7.2026e-02  2.2953e-02  1.9734e-02  0:07:10 1989

  iter  continuity  x-velocity  y-velocity  z-velocity      energy           k       omega     time/iter
    12  6.6825e-02  5.4210e-02  1.2471e-01  9.1569e-01  6.6758e-02  2.1739e-02  1.8757e-02  0:05:44 1988
    13  6.2307e-02  5.4786e-02  1.1975e-01  9.1340e-01  6.2231e-02  2.0678e-02  1.7885e-02  0:04:35 1987
    14  6.0241e-02  5.4572e-02  1.1452e-01  9.0636e-01  6.0162e-02  1.9747e-02  1.7138e-02  0:10:17 1986
    15  5.8128e-02  5.3873e-02  1.1005e-01  9.2526e-01  5.8044e-02  1.8940e-02  1.6464e-02  0:08:13 1985
    16  5.8406e-02  5.4574e-02  1.0571e-01  9.7196e-01  5.8318e-02  1.8220e-02  1.5860e-02  0:06:34 1984
    17  5.6649e-02  5.5523e-02  1.0271e-01  1.0059e+00  5.6561e-02  1.7579e-02  1.5332e-02  0:05:15 1983
    18  5.4755e-02  5.5654e-02  1.0026e-01  1.0359e+00  5.4662e-02  1.7000e-02  1.4840e-02  0:04:12 1982
    19  5.3346e-02  5.5111e-02  9.7882e-02  1.0743e+00  5.3250e-02  1.6496e-02  1.4401e-02  0:03:22 1981
    20  5.2419e-02  5.4073e-02  9.4708e-02  1.1201e+00  5.2318e-02  1.6035e-02  1.3988e-02  0:09:17 1980
    21  5.3075e-02  5.2601e-02  9.1615e-02  1.1828e+00  5.2967e-02  1.5644e-02  1.3616e-02  0:07:26 1979
    22  5.4135e-02  5.1040e-02  8.9235e-02  1.1963e+00  5.4023e-02  1.5291e-02  1.3332e-02  0:05:56 1978

  iter  continuity  x-velocity  y-velocity  z-velocity      energy           k       omega     time/iter
    23  5.5372e-02  4.9096e-02  8.6111e-02  1.2435e+00  5.5258e-02  1.5020e-02  1.3062e-02  0:04:45 1977
    24  5.5571e-02  4.6738e-02  8.2875e-02  1.2891e+00  5.5458e-02  1.4751e-02  1.2736e-02  0:03:48 1976
    25  5.6684e-02  4.3516e-02  7.9976e-02  1.2815e+00  5.6576e-02  1.4465e-02  1.2409e-02  0:03:02 1975
    26  5.8152e-02  4.0439e-02  7.8920e-02  1.2314e+00  5.8046e-02  1.4256e-02  1.2228e-02  0:09:00 1974
    27  5.9804e-02  3.8795e-02  7.8310e-02  1.2016e+00  5.9707e-02  1.4083e-02  1.1980e-02  0:07:12 1973
    28  6.1119e-02  3.7452e-02  7.8561e-02  1.1566e+00  6.1029e-02  1.3845e-02  1.1682e-02  0:05:46 1972
    29  6.2505e-02  3.6179e-02  8.0172e-02  1.0905e+00  6.2422e-02  1.3603e-02  1.1457e-02  0:04:36 1971
    30  6.1893e-02  3.5064e-02  8.1486e-02  1.0431e+00  6.1814e-02  1.3446e-02  1.1321e-02  0:03:41 1970
    31  5.9636e-02  3.4360e-02  8.1654e-02  9.7485e-01  5.9558e-02  1.3265e-02  1.1111e-02  0:02:57 1969
    32  5.7493e-02  3.3981e-02  8.0543e-02  9.2822e-01  5.7417e-02  1.3015e-02  1.0855e-02  0:02:21 1968
    33  5.4353e-02  3.3169e-02  7.8231e-02  8.6379e-01  5.4279e-02  1.2771e-02  1.0576e-02  0:08:26 1967

  iter  continuity  x-velocity  y-velocity  z-velocity      energy           k       omega     time/iter
    34  5.0391e-02  3.2737e-02  7.5279e-02  8.1686e-01  5.0319e-02  1.2566e-02  1.0377e-02  0:06:45 1966
    35  4.7261e-02  3.1842e-02  7.2004e-02  7.7706e-01  4.7190e-02  1.2349e-02  1.0159e-02  0:05:24 1965
    36  4.3991e-02  3.0916e-02  6.8119e-02  7.4284e-01  4.3919e-02  1.2063e-02  9.9354e-03  0:04:19 1964
    37  4.1334e-02  3.0074e-02  6.4074e-02  7.1487e-01  4.1260e-02  1.1803e-02  9.6610e-03  0:03:27 1963
    38  3.8587e-02  2.9199e-02  6.0661e-02  6.6936e-01  3.8511e-02  1.1550e-02  9.4071e-03  0:02:45 1962
    39  3.6408e-02  2.8203e-02  5.7621e-02  6.4580e-01  3.6330e-02  1.1313e-02  9.2081e-03  0:02:12 1961
    40  3.5146e-02  2.6993e-02  5.5042e-02  6.0622e-01  3.5067e-02  1.1067e-02  8.9722e-03  0:01:46 1960
    41  3.4862e-02  2.6657e-02  5.2915e-02  5.6886e-01  3.4786e-02  1.0828e-02  8.7138e-03  0:07:56 1959
    42  3.4128e-02  2.6404e-02  5.0708e-02  5.3415e-01  3.4055e-02  1.0607e-02  8.4933e-03  0:06:21 1958
    43  3.4452e-02  2.5707e-02  4.9498e-02  5.0743e-01  3.4383e-02  1.0387e-02  8.2686e-03  0:05:05 1957
    44  3.5050e-02  2.5283e-02  4.8727e-02  4.8744e-01  3.4985e-02  1.0191e-02  8.0509e-03  0:04:04 1956

  iter  continuity  x-velocity  y-velocity  z-velocity      energy           k       omega     time/iter
    45  3.5551e-02  2.5315e-02  4.8524e-02  4.8039e-01  3.5492e-02  1.0030e-02  7.8700e-03  0:03:15 1955
    46  3.5381e-02  2.5538e-02  4.8121e-02  4.9100e-01  3.5327e-02  9.8579e-03  7.7021e-03  0:02:36 1954
    47  3.5189e-02  2.6053e-02  4.7843e-02  5.1550e-01  3.5141e-02  9.7440e-03  7.5667e-03  0:02:05 1953
    48  3.4263e-02  2.6857e-02  4.7651e-02  5.5281e-01  3.4218e-02  9.6239e-03  7.4458e-03  0:08:10 1952
    49  3.3200e-02  2.7580e-02  4.7689e-02  6.0064e-01  3.3157e-02  9.5486e-03  7.3624e-03  0:06:32 1951
    50  3.1760e-02  2.8020e-02  4.7580e-02  6.4651e-01  3.1717e-02  9.4625e-03  7.2885e-03  0:05:13 1950
    51  3.0735e-02  2.8369e-02  4.7602e-02  6.9857e-01  3.0693e-02  9.3817e-03  7.1947e-03  0:04:10 1949
    52  3.0277e-02  2.8520e-02  4.7651e-02  7.5105e-01  3.0236e-02  9.3367e-03  7.1464e-03  0:03:20 1948
    53  3.0075e-02  2.8255e-02  4.7466e-02  7.9938e-01  3.0035e-02  9.2771e-03  7.1131e-03  0:02:40 1947
    54  3.0205e-02  2.7572e-02  4.7184e-02  8.4549e-01  3.0167e-02  9.2154e-03  7.0692e-03  0:02:08 1946
    55  3.0953e-02  2.6539e-02  4.6862e-02  8.8746e-01  3.0916e-02  9.1663e-03  7.0214e-03  0:08:11 1945

  iter  continuity  x-velocity  y-velocity  z-velocity      energy           k       omega     time/iter
    56  3.2143e-02  2.5169e-02  4.6249e-02  9.2255e-01  3.2107e-02  9.1411e-03  6.9583e-03  0:06:33 1944
    57  3.4071e-02  2.4120e-02  4.6039e-02  9.4649e-01  3.4037e-02  9.1549e-03  6.9043e-03  0:05:14 1943
    58  3.5816e-02  2.3125e-02  4.5961e-02  9.5697e-01  3.5784e-02  9.1576e-03  6.8816e-03  0:04:11 1942
    59  3.8208e-02  2.2313e-02  4.6525e-02  9.4036e-01  3.8180e-02  9.1789e-03  6.7915e-03  0:03:21 1941
    60  4.0929e-02  2.1826e-02  4.7283e-02  9.0315e-01  4.0904e-02  9.2016e-03  6.7733e-03  0:02:41 1940
    61  4.3690e-02  2.1791e-02  4.8570e-02  8.6666e-01  4.3666e-02  9.1480e-03  6.7376e-03  0:02:08 1939
    62  4.5596e-02  2.1741e-02  5.0853e-02  8.2064e-01  4.5572e-02  9.2332e-03  6.7196e-03  0:08:10 1938
    63  4.6835e-02  2.2318e-02  5.3224e-02  7.7098e-01  4.6811e-02  9.3362e-03  6.6631e-03  0:06:32 1937
    64  4.8139e-02  2.2854e-02  5.5506e-02  7.1625e-01  4.8117e-02  9.3406e-03  6.6035e-03  0:05:13 1936
    65  4.8199e-02  2.3463e-02  5.7679e-02  6.6499e-01  4.8177e-02  9.3932e-03  6.5519e-03  0:04:11 1935
    66  4.7515e-02  2.3938e-02  5.9437e-02  6.4410e-01  4.7492e-02  9.3344e-03  6.5054e-03  0:03:20 1934

  iter  continuity  x-velocity  y-velocity  z-velocity      energy           k       omega     time/iter
    67  4.5733e-02  2.4504e-02  6.0381e-02  6.2437e-01  4.5707e-02  9.3678e-03  6.5022e-03  0:02:40 1933
    68  4.3293e-02  2.4229e-02  6.0545e-02  5.9794e-01  4.3263e-02  9.2837e-03  6.4460e-03  0:08:35 1932
    69  4.0711e-02  2.4059e-02  5.9569e-02  5.6201e-01  4.0675e-02  9.2369e-03  6.4168e-03  0:06:51 1931
    70  3.8944e-02  2.3604e-02  5.7914e-02  5.2930e-01  3.8905e-02  9.1036e-03  6.3323e-03  0:05:29 1930
    71  3.7756e-02  2.3131e-02  5.5445e-02  5.0901e-01  3.7712e-02  8.9673e-03  6.2993e-03  0:04:23 1929
    72  3.7199e-02  2.2410e-02  5.2621e-02  5.0567e-01  3.7151e-02  8.8360e-03  6.2323e-03  0:03:30 1928
    73  3.6789e-02  2.2142e-02  5.0131e-02  5.1504e-01  3.6738e-02  8.6979e-03  6.1642e-03  0:02:48 1927
    74  3.6836e-02  2.1706e-02  4.7338e-02  5.4006e-01  3.6781e-02  8.5581e-03  6.0807e-03  0:02:14 1926
    75  3.7304e-02  2.0797e-02  4.5320e-02  5.7644e-01  3.7247e-02  8.3782e-03  5.9744e-03  0:08:13 1925
    76  3.9139e-02  2.0596e-02  4.4201e-02  6.1985e-01  3.9085e-02  8.2868e-03  5.8723e-03  0:06:34 1924
    77  3.9812e-02  2.0363e-02  4.2755e-02  6.6480e-01  3.9760e-02  8.2071e-03  5.7617e-03  0:05:15 1923

  iter  continuity  x-velocity  y-velocity  z-velocity      energy           k       omega     time/iter
    78  4.0553e-02  2.0209e-02  4.2261e-02  7.0830e-01  4.0502e-02  8.1049e-03  5.6732e-03  0:04:12 1922
    79  4.1071e-02  2.0491e-02  4.2437e-02  7.4789e-01  4.1020e-02  8.0301e-03  5.5726e-03  0:03:21 1921
    80  4.0325e-02  2.0890e-02  4.3054e-02  7.8609e-01  4.0275e-02  7.9953e-03  5.4795e-03  0:02:41 1920
    81  3.8490e-02  2.2056e-02  4.3496e-02  8.2017e-01  3.8440e-02  7.9657e-03  5.4313e-03  0:02:09 1919
    82  3.6247e-02  2.3343e-02  4.4112e-02  8.5880e-01  3.6197e-02  7.9502e-03  5.3926e-03  0:01:43 1918
    83  3.3967e-02  2.4423e-02  4.4795e-02  8.9952e-01  3.3914e-02  7.9448e-03  5.3688e-03  0:07:46 1917
    84  3.3081e-02  2.5286e-02  4.5391e-02  9.4396e-01  3.3030e-02  7.9614e-03  5.3668e-03  0:06:12 1916
    85  3.3222e-02  2.6100e-02  4.5614e-02  9.8912e-01  3.3177e-02  7.9263e-03  5.3585e-03  0:04:58 1915
    86  3.4565e-02  2.6367e-02  4.4941e-02  1.0385e+00  3.4525e-02  7.9221e-03  5.3543e-03  0:03:58 1914
    87  3.5605e-02  2.6283e-02  4.4479e-02  1.0813e+00  3.5568e-02  7.9378e-03  5.3413e-03  0:03:10 1913
    88  3.6892e-02  2.6101e-02  4.3741e-02  1.1233e+00  3.6859e-02  7.8986e-03  5.3737e-03  0:02:32 1912

  iter  continuity  x-velocity  y-velocity  z-velocity      energy           k       omega     time/iter
    89  3.8696e-02  2.5439e-02  4.2888e-02  1.1501e+00  3.8668e-02  7.9170e-03  5.3872e-03  0:02:02 1911
    90  4.0595e-02  2.4808e-02  4.1732e-02  1.1723e+00  4.0571e-02  7.9439e-03  5.3676e-03  0:07:59 1910
    91  4.2111e-02  2.3910e-02  4.1092e-02  1.1835e+00  4.2091e-02  7.9697e-03  5.3459e-03  0:06:23 1909
    92  4.2806e-02  2.2956e-02  4.0778e-02  1.1774e+00  4.2789e-02  7.9200e-03  5.2894e-03  0:05:06 1908
    93  4.2511e-02  2.2131e-02  4.0394e-02  1.1742e+00  4.2497e-02  7.9101e-03  5.2198e-03  0:04:05 1907
    94  4.1085e-02  2.1185e-02  4.0386e-02  1.1689e+00  4.1074e-02  7.8358e-03  5.1997e-03  0:03:16 1906
    95  3.8938e-02  2.0363e-02  4.0065e-02  1.1690e+00  3.8929e-02  7.8383e-03  5.1091e-03  0:02:37 1905
    96  3.6332e-02  1.9589e-02  3.9906e-02  1.1598e+00  3.6324e-02  7.7542e-03  5.0872e-03  0:02:05 1904
    97  3.3618e-02  1.8973e-02  3.9072e-02  1.1481e+00  3.3612e-02  7.6688e-03  4.9785e-03  0:08:01 1903
    98  3.1580e-02  1.8453e-02  3.7854e-02  1.1296e+00  3.1575e-02  7.5592e-03  4.8929e-03  0:06:24 1902
    99  2.9997e-02  1.8006e-02  3.6159e-02  1.1046e+00  2.9993e-02  7.3897e-03  4.7795e-03  0:05:07 1901

  iter  continuity  x-velocity  y-velocity  z-velocity      energy           k       omega     time/iter
   100  2.9112e-02  1.7744e-02  3.4307e-02  1.0788e+00  2.9109e-02  7.2955e-03  4.7022e-03  0:04:06 1900
   101  2.8971e-02  1.7376e-02  3.2465e-02  1.0503e+00  2.8967e-02  7.2045e-03  4.6028e-03  0:03:17 1899
   102  2.9226e-02  1.7242e-02  3.0558e-02  1.0189e+00  2.9222e-02  7.1078e-03  4.4881e-03  0:02:37 1898
   103  2.9696e-02  1.6781e-02  2.8736e-02  9.8662e-01  2.9691e-02  6.9821e-03  4.3270e-03  0:08:25 1897
   104  3.0605e-02  1.6410e-02  2.7475e-02  9.5335e-01  3.0599e-02  6.8668e-03  4.2035e-03  0:06:44 1896
   105  3.0560e-02  1.6218e-02  2.6425e-02  9.1793e-01  3.0554e-02  6.7884e-03  4.1282e-03  0:05:23 1895
   106  2.9861e-02  1.6271e-02  2.5718e-02  8.8096e-01  2.9854e-02  6.7006e-03  4.0224e-03  0:04:18 1894
   107  2.8273e-02  1.6297e-02  2.5206e-02  8.4550e-01  2.8265e-02  6.6420e-03  3.9655e-03  0:03:26 1893
   108  2.6194e-02  1.6320e-02  2.4897e-02  8.1391e-01  2.6185e-02  6.5741e-03  3.9069e-03  0:02:45 1892
   109  2.4124e-02  1.6223e-02  2.4697e-02  7.8366e-01  2.4114e-02  6.5023e-03  3.8661e-03  0:02:12 1891
   110  2.3077e-02  1.6143e-02  2.4166e-02  7.5689e-01  2.3068e-02  6.4919e-03  3.8590e-03  0:08:04 1890

  iter  continuity  x-velocity  y-velocity  z-velocity      energy           k       omega     time/iter
   111  2.3092e-02  1.5982e-02  2.3586e-02  7.3464e-01  2.3083e-02  6.4296e-03  3.8427e-03  0:06:27 1889
   112  2.4444e-02  1.5767e-02  2.3185e-02  7.1760e-01  2.4435e-02  6.3901e-03  3.8302e-03  0:05:09 1888
   113  2.6041e-02  1.5400e-02  2.2691e-02  7.0627e-01  2.6032e-02  6.3440e-03  3.8435e-03  0:04:07 1887
   114  2.7707e-02  1.4983e-02  2.2057e-02  6.9726e-01  2.7698e-02  6.2870e-03  3.8007e-03  0:03:18 1886
   115  2.9731e-02  1.4550e-02  2.1652e-02  6.8524e-01  2.9722e-02  6.2335e-03  3.7725e-03  0:02:38 1885
   116  3.1179e-02  1.4136e-02  2.1489e-02  6.7012e-01  3.1170e-02  6.2062e-03  3.7502e-03  0:02:06 1884
   117  3.1852e-02  1.3799e-02  2.1348e-02  6.5501e-01  3.1843e-02  6.1798e-03  3.7293e-03  0:07:58 1883
   118  3.1145e-02  1.3441e-02  2.1608e-02  6.3530e-01  3.1136e-02  6.1122e-03  3.6517e-03  0:06:22 1882
   119  3.0329e-02  1.3048e-02  2.1905e-02  6.0727e-01  3.0321e-02  6.0890e-03  3.6088e-03  0:05:05 1881
   120  2.7928e-02  1.2599e-02  2.1882e-02  5.7135e-01  2.7920e-02  5.9835e-03  3.5732e-03  0:04:04 1880
   121  2.5943e-02  1.2278e-02  2.1514e-02  5.3222e-01  2.5935e-02  5.9242e-03  3.5113e-03  0:03:15 1879

  iter  continuity  x-velocity  y-velocity  z-velocity      energy           k       omega     time/iter
   122  2.3748e-02  1.1940e-02  2.0823e-02  4.9885e-01  2.3741e-02  5.8414e-03  3.4532e-03  0:02:36 1878
   123  2.2681e-02  1.1772e-02  1.9918e-02  4.7056e-01  2.2675e-02  5.7708e-03  3.4007e-03  0:08:20 1877
   124  2.2181e-02  1.1683e-02  1.8881e-02  4.4818e-01  2.2175e-02  5.6725e-03  3.3237e-03  0:06:40 1876
   125  2.2135e-02  1.1531e-02  1.7855e-02  4.2904e-01  2.2129e-02  5.5733e-03  3.2158e-03  0:05:20 1875
   126  2.2925e-02  1.1438e-02  1.6987e-02  4.1362e-01  2.2919e-02  5.5024e-03  3.1244e-03  0:04:16 1874
   127  2.3320e-02  1.1421e-02  1.6309e-02  3.9987e-01  2.3313e-02  5.4386e-03  3.0396e-03  0:03:24 1873
   128  2.3326e-02  1.1459e-02  1.5862e-02  3.8817e-01  2.3318e-02  5.3847e-03  3.0118e-03  0:02:43 1872
   129  2.2590e-02  1.1577e-02  1.5548e-02  3.7838e-01  2.2581e-02  5.3334e-03  2.9619e-03  0:02:11 1871
   130  2.0907e-02  1.1709e-02  1.5508e-02  3.7031e-01  2.0897e-02  5.2788e-03  2.9207e-03  0:07:59 1870
   131  1.8746e-02  1.1786e-02  1.5557e-02  3.6770e-01  1.8734e-02  5.2601e-03  2.9249e-03  0:06:23 1869
   132  1.7362e-02  1.1946e-02  1.5530e-02  3.7083e-01  1.7350e-02  5.2532e-03  2.9378e-03  0:05:06 1868

  iter  continuity  x-velocity  y-velocity  z-velocity      energy           k       omega     time/iter
   133  1.7282e-02  1.1996e-02  1.5361e-02  3.7811e-01  1.7269e-02  5.2451e-03  2.9604e-03  0:04:05 1867
   134  1.8200e-02  1.1990e-02  1.5161e-02  3.8988e-01  1.8186e-02  5.2496e-03  2.9910e-03  0:03:16 1866
   135  2.0001e-02  1.1936e-02  1.5066e-02  4.0192e-01  1.9987e-02  5.2540e-03  3.0038e-03  0:02:36 1865
   136  2.2067e-02  1.1756e-02  1.4774e-02  4.2001e-01  2.2052e-02  5.2688e-03  3.0000e-03  0:02:05 1864
   137  2.3820e-02  1.1532e-02  1.4720e-02  4.3383e-01  2.3805e-02  5.2915e-03  3.0179e-03  0:07:53 1863
   138  2.5247e-02  1.1304e-02  1.4658e-02  4.4449e-01  2.5231e-02  5.3206e-03  3.0472e-03  0:06:18 1862
   139  2.5739e-02  1.1099e-02  1.4659e-02  4.4994e-01  2.5724e-02  5.3215e-03  3.0448e-03  0:05:02 1861
   140  2.5266e-02  1.0865e-02  1.4879e-02  4.4317e-01  2.5250e-02  5.3493e-03  3.0256e-03  0:04:02 1860
   141  2.3827e-02  1.0652e-02  1.5142e-02  4.3259e-01  2.3810e-02  5.3522e-03  3.0220e-03  0:03:13 1859
   142  2.1285e-02  1.0395e-02  1.5008e-02  4.1149e-01  2.1269e-02  5.3585e-03  2.9704e-03  0:02:34 1858
   143  1.8559e-02  1.0142e-02  1.4768e-02  3.8807e-01  1.8541e-02  5.3427e-03  2.9447e-03  0:08:15 1857

  iter  continuity  x-velocity  y-velocity  z-velocity      energy           k       omega     time/iter
   144  1.6871e-02  9.8083e-03  1.4260e-02  3.6529e-01  1.6853e-02  5.3388e-03  2.8756e-03  0:06:36 1856
   145  1.6202e-02  9.5715e-03  1.3756e-02  3.4679e-01  1.6185e-02  5.3280e-03  2.8597e-03  0:05:16 1855
   146  1.6067e-02  9.4349e-03  1.3254e-02  3.3465e-01  1.6050e-02  5.3208e-03  2.8343e-03  0:04:13 1854
   147  1.7038e-02  9.3087e-03  1.2785e-02  3.2613e-01  1.7022e-02  5.3121e-03  2.8026e-03  0:03:22 1853
   148  1.7920e-02  9.2483e-03  1.2377e-02  3.2007e-01  1.7904e-02  5.3047e-03  2.7465e-03  0:02:42 1852
   149  1.8367e-02  9.2411e-03  1.2009e-02  3.1780e-01  1.8352e-02  5.3057e-03  2.7530e-03  0:02:09 1851
   150  1.8404e-02  9.2566e-03  1.1796e-02  3.1323e-01  1.8388e-02  5.3016e-03  2.7326e-03  0:07:53 1850
   151  1.7841e-02  9.2977e-03  1.1769e-02  3.1205e-01  1.7825e-02  5.2987e-03  2.7048e-03  0:06:19 1849
   152  1.6801e-02  9.3410e-03  1.1738e-02  3.1354e-01  1.6785e-02  5.2961e-03  2.7012e-03  0:05:03 1848
   153  1.5756e-02  9.3846e-03  1.1720e-02  3.1503e-01  1.5740e-02  5.3099e-03  2.7085e-03  0:04:02 1847
   154  1.4760e-02  9.3220e-03  1.1598e-02  3.1909e-01  1.4744e-02  5.3169e-03  2.7140e-03  0:03:13 1846

  iter  continuity  x-velocity  y-velocity  z-velocity      energy           k       omega     time/iter
   155  1.4708e-02  9.2581e-03  1.1463e-02  3.2464e-01  1.4692e-02  5.3206e-03  2.7054e-03  0:02:35 1845
   156  1.4916e-02  9.1196e-03  1.1317e-02  3.3195e-01  1.4902e-02  5.3282e-03  2.6996e-03  0:02:04 1844
   157  1.5728e-02  8.9846e-03  1.1119e-02  3.4278e-01  1.5714e-02  5.3316e-03  2.6872e-03  0:07:48 1843
   158  1.6777e-02  8.7776e-03  1.0962e-02  3.4663e-01  1.6764e-02  5.3314e-03  2.6444e-03  0:06:14 1842
   159  1.7573e-02  8.6357e-03  1.0850e-02  3.5319e-01  1.7561e-02  5.3298e-03  2.6326e-03  0:04:59 1841
   160  1.7613e-02  8.4797e-03  1.0799e-02  3.5484e-01  1.7601e-02  5.3266e-03  2.6126e-03  0:03:59 1840
   161  1.7100e-02  8.3420e-03  1.0783e-02  3.5278e-01  1.7089e-02  5.2957e-03  2.5613e-03  0:03:11 1839
   162  1.5695e-02  8.1936e-03  1.0673e-02  3.4652e-01  1.5685e-02  5.2784e-03  2.5229e-03  0:02:33 1838
   163  1.3821e-02  8.0855e-03  1.0523e-02  3.4019e-01  1.3812e-02  5.2510e-03  2.4938e-03  0:08:10 1837
   164  1.2099e-02  7.9217e-03  1.0272e-02  3.3616e-01  1.2091e-02  5.2091e-03  2.4532e-03  0:06:31 1836
   165  1.0899e-02  7.7421e-03  9.9530e-03  3.3108e-01  1.0893e-02  5.1662e-03  2.3912e-03  0:05:13 1835

  iter  continuity  x-velocity  y-velocity  z-velocity      energy           k       omega     time/iter
   166  1.0450e-02  7.6256e-03  9.6364e-03  3.3301e-01  1.0445e-02  5.1284e-03  2.3262e-03  0:04:10 1834
   167  1.0915e-02  7.5216e-03  9.2814e-03  3.3603e-01  1.0910e-02  5.0818e-03  2.2868e-03  0:03:20 1833
   168  1.1844e-02  7.4144e-03  8.9801e-03  3.4209e-01  1.1838e-02  5.0359e-03  2.2539e-03  0:02:40 1832
   169  1.2612e-02  7.3811e-03  8.6661e-03  3.4983e-01  1.2607e-02  5.0004e-03  2.2170e-03  0:02:08 1831
   170  1.3158e-02  7.3641e-03  8.3859e-03  3.5887e-01  1.3152e-02  4.9576e-03  2.1809e-03  0:07:48 1830
   171  1.3351e-02  7.3406e-03  8.1101e-03  3.6806e-01  1.3344e-02  4.9179e-03  2.1704e-03  0:06:14 1829
   172  1.3085e-02  7.3254e-03  7.8693e-03  3.7876e-01  1.3077e-02  4.8788e-03  2.1528e-03  0:04:59 1828
   173  1.2478e-02  7.2714e-03  7.5760e-03  3.8812e-01  1.2469e-02  4.8451e-03  2.1329e-03  0:03:59 1827
   174  1.1903e-02  7.2131e-03  7.2508e-03  3.9617e-01  1.1893e-02  4.7992e-03  2.1041e-03  0:03:11 1826
   175  1.1285e-02  7.1192e-03  6.9185e-03  4.0538e-01  1.1274e-02  4.7455e-03  2.0731e-03  0:02:33 1825
   176  1.0953e-02  7.0111e-03  6.5624e-03  4.1490e-01  1.0942e-02  4.6961e-03  2.0316e-03  0:02:02 1824

  iter  continuity  x-velocity  y-velocity  z-velocity      energy           k       omega     time/iter
   177  1.1272e-02  6.8827e-03  6.3043e-03  4.2120e-01  1.1260e-02  4.6473e-03  1.9953e-03  0:07:42 1823
   178  1.1871e-02  6.7411e-03  5.9697e-03  4.2692e-01  1.1859e-02  4.5869e-03  1.9775e-03  0:06:10 1822
   179  1.2556e-02  6.6240e-03  5.7103e-03  4.2890e-01  1.2543e-02  4.5235e-03  1.9386e-03  0:04:56 1821
   180  1.2467e-02  6.5044e-03  5.4855e-03  4.2912e-01  1.2453e-02  4.4622e-03  1.9064e-03  0:03:56 1820
   181  1.1934e-02  6.3884e-03  5.2627e-03  4.2777e-01  1.1920e-02  4.3932e-03  1.8732e-03  0:03:09 1819
   182  1.1146e-02  6.2498e-03  5.0792e-03  4.2357e-01  1.1132e-02  4.3352e-03  1.8214e-03  0:02:31 1818
   183  1.0373e-02  6.1427e-03  4.9303e-03  4.1922e-01  1.0360e-02  4.2662e-03  1.7913e-03  0:08:04 1817
   184  9.8486e-03  6.0502e-03  4.8333e-03  4.1448e-01  9.8358e-03  4.1892e-03  1.7573e-03  0:06:27 1816
   185  9.5957e-03  5.9646e-03  4.7366e-03  4.0994e-01  9.5830e-03  4.1176e-03  1.7292e-03  0:05:10 1815
   186  9.5328e-03  5.8766e-03  4.6525e-03  4.0518e-01  9.5195e-03  4.0452e-03  1.7198e-03  0:04:08 1814
   187  9.6506e-03  5.8071e-03  4.5736e-03  4.0011e-01  9.6362e-03  3.9704e-03  1.7024e-03  0:03:18 1813

  iter  continuity  x-velocity  y-velocity  z-velocity      energy           k       omega     time/iter
   188  9.9009e-03  5.7330e-03  4.4911e-03  3.9516e-01  9.8856e-03  3.8978e-03  1.6839e-03  0:02:38 1812
   189  9.9685e-03  5.6500e-03  4.3741e-03  3.9062e-01  9.9524e-03  3.8266e-03  1.6663e-03  0:02:07 1811
   190  9.6062e-03  5.5642e-03  4.2184e-03  3.8540e-01  9.5898e-03  3.7533e-03  1.6353e-03  0:07:43 1810
   191  9.4252e-03  5.4716e-03  4.0946e-03  3.8001e-01  9.4089e-03  3.6816e-03  1.5908e-03  0:06:10 1809
   192  9.5057e-03  5.3999e-03  3.8981e-03  3.7540e-01  9.4896e-03  3.6213e-03  1.5593e-03  0:04:56 1808
   193  9.7026e-03  5.3181e-03  3.7627e-03  3.7090e-01  9.6866e-03  3.5657e-03  1.5302e-03  0:03:57 1807
   194  9.7585e-03  5.2333e-03  3.6681e-03  3.6684e-01  9.7426e-03  3.5041e-03  1.5098e-03  0:03:09 1806
   195  9.6440e-03  5.1481e-03  3.5773e-03  3.6216e-01  9.6280e-03  3.4437e-03  1.4834e-03  0:02:31 1805
   196  9.4207e-03  5.0632e-03  3.5152e-03  3.5789e-01  9.4046e-03  3.3889e-03  1.4650e-03  0:02:01 1804
   197  9.0740e-03  4.9845e-03  3.4658e-03  3.5339e-01  9.0579e-03  3.3355e-03  1.4505e-03  0:07:37 1803
   198  8.6692e-03  4.9067e-03  3.4254e-03  3.4869e-01  8.6531e-03  3.2829e-03  1.4186e-03  0:06:06 1802

  iter  continuity  x-velocity  y-velocity  z-velocity      energy           k       omega     time/iter
   199  8.2383e-03  4.8286e-03  3.3885e-03  3.4406e-01  8.2225e-03  3.2332e-03  1.3881e-03  0:04:52 1801
   200  7.8085e-03  4.7417e-03  3.3646e-03  3.3939e-01  7.7931e-03  3.1819e-03  1.3740e-03  0:03:54 1800
   201  7.3178e-03  4.6616e-03  3.3535e-03  3.3487e-01  7.3030e-03  3.1337e-03  1.3496e-03  0:03:07 1799
   202  6.7925e-03  4.5869e-03  3.3329e-03  3.3004e-01  6.7785e-03  3.0879e-03  1.3323e-03  0:02:29 1798
   203  6.2923e-03  4.5145e-03  3.3217e-03  3.2495e-01  6.2793e-03  3.0419e-03  1.3151e-03  0:07:59 1797
   204  5.7317e-03  4.4429e-03  3.3130e-03  3.1965e-01  5.7198e-03  2.9986e-03  1.2909e-03  0:06:23 1796
   205  5.1435e-03  4.3704e-03  3.3160e-03  3.1439e-01  5.1327e-03  2.9542e-03  1.2752e-03  0:05:06 1795
   206  4.5452e-03  4.3013e-03  3.3237e-03  3.0917e-01  4.5356e-03  2.9115e-03  1.2556e-03  0:04:05 1794
   207  4.0012e-03  4.2348e-03  3.3298e-03  3.0387e-01  3.9929e-03  2.8730e-03  1.2458e-03  0:03:16 1793
   208  3.5746e-03  4.1712e-03  3.3467e-03  2.9846e-01  3.5674e-03  2.8360e-03  1.2297e-03  0:02:36 1792
   209  3.2309e-03  4.1100e-03  3.3677e-03  2.9278e-01  3.2248e-03  2.7998e-03  1.2178e-03  0:02:05 1791

  iter  continuity  x-velocity  y-velocity  z-velocity      energy           k       omega     time/iter
   210  3.0150e-03  4.0498e-03  3.3931e-03  2.8672e-01  3.0099e-03  2.7640e-03  1.2050e-03  0:07:38 1790
   211  2.9163e-03  3.9933e-03  3.4204e-03  2.8022e-01  2.9119e-03  2.7308e-03  1.1954e-03  0:06:06 1789
   212  2.8894e-03  3.9388e-03  3.4479e-03  2.7342e-01  2.8855e-03  2.7034e-03  1.1858e-03  0:04:53 1788
   213  2.9218e-03  3.8876e-03  3.4790e-03  2.6613e-01  2.9182e-03  2.6769e-03  1.1822e-03  0:03:54 1787
   214  3.0665e-03  3.8425e-03  3.5121e-03  2.5856e-01  3.0629e-03  2.6557e-03  1.1794e-03  0:03:07 1786
   215  3.1506e-03  3.8007e-03  3.5451e-03  2.5047e-01  3.1470e-03  2.6409e-03  1.1815e-03  0:02:30 1785
   216  3.1782e-03  3.7626e-03  3.5747e-03  2.4203e-01  3.1747e-03  2.6263e-03  1.1833e-03  0:02:00 1784
   217  3.1782e-03  3.7270e-03  3.6023e-03  2.3328e-01  3.1748e-03  2.6137e-03  1.1810e-03  0:07:32 1783
   218  3.1858e-03  3.6951e-03  3.6284e-03  2.2415e-01  3.1824e-03  2.6040e-03  1.1790e-03  0:06:02 1782
   219  3.1968e-03  3.6671e-03  3.6527e-03  2.1469e-01  3.1934e-03  2.5934e-03  1.1753e-03  0:04:49 1781
   220  3.1960e-03  3.6426e-03  3.6760e-03  2.0483e-01  3.1926e-03  2.5841e-03  1.1713e-03  0:03:51 1780

  iter  continuity  x-velocity  y-velocity  z-velocity      energy           k       omega     time/iter
   221  3.1831e-03  3.6219e-03  3.6983e-03  1.9446e-01  3.1797e-03  2.5745e-03  1.1646e-03  0:03:05 1779
   222  3.1650e-03  3.6031e-03  3.7191e-03  1.8393e-01  3.1616e-03  2.5642e-03  1.1622e-03  0:02:28 1778
   223  3.1445e-03  3.5863e-03  3.7368e-03  1.7305e-01  3.1411e-03  2.5506e-03  1.1593e-03  0:01:58 1777
   224  3.1222e-03  3.5714e-03  3.7532e-03  1.6178e-01  3.1189e-03  2.5414e-03  1.1602e-03  0:07:30 1776
   225  3.1055e-03  3.5573e-03  3.7674e-03  1.5053e-01  3.1022e-03  2.5344e-03  1.1555e-03  0:06:00 1775
   226  3.0955e-03  3.5424e-03  3.7806e-03  1.3968e-01  3.0923e-03  2.5266e-03  1.1435e-03  0:04:47 1774
   227  3.0916e-03  3.5262e-03  3.7995e-03  1.2967e-01  3.0884e-03  2.5182e-03  1.1389e-03  0:03:50 1773
   228  3.0977e-03  3.5091e-03  3.8222e-03  1.2085e-01  3.0945e-03  2.5079e-03  1.1319e-03  0:03:04 1772
   229  3.1143e-03  3.4927e-03  3.8493e-03  1.1378e-01  3.1111e-03  2.4959e-03  1.1278e-03  0:02:27 1771
   230  3.1413e-03  3.4759e-03  3.8758e-03  1.0890e-01  3.1382e-03  2.4810e-03  1.1197e-03  0:07:51 1770
   231  3.1750e-03  3.4585e-03  3.8973e-03  1.0668e-01  3.1718e-03  2.4661e-03  1.1118e-03  0:06:17 1769

  iter  continuity  x-velocity  y-velocity  z-velocity      energy           k       omega     time/iter
   232  3.2151e-03  3.4404e-03  3.9197e-03  1.0740e-01  3.2120e-03  2.4536e-03  1.1056e-03  0:05:01 1768
   233  3.2564e-03  3.4219e-03  3.9423e-03  1.1145e-01  3.2533e-03  2.4443e-03  1.0983e-03  0:04:01 1767
   234  3.2998e-03  3.4038e-03  3.9657e-03  1.1857e-01  3.2967e-03  2.4383e-03  1.0904e-03  0:09:06 1766
   235  3.3475e-03  3.3818e-03  3.9908e-03  1.2840e-01  3.3445e-03  2.4327e-03  1.0900e-03  0:07:16 1765
   236  3.3968e-03  3.3569e-03  4.0218e-03  1.4065e-01  3.3938e-03  2.4269e-03  1.0908e-03  0:05:49 1764
   237  3.4400e-03  3.3300e-03  4.0592e-03  1.5459e-01  3.4370e-03  2.4199e-03  1.0859e-03  0:04:39 1763
   238  3.4834e-03  3.3016e-03  4.0992e-03  1.6956e-01  3.4804e-03  2.4136e-03  1.0793e-03  0:03:43 1762
   239  3.5261e-03  3.2728e-03  4.1415e-03  1.8546e-01  3.5232e-03  2.4090e-03  1.0742e-03  0:02:58 1761
   240  3.5694e-03  3.2437e-03  4.1760e-03  2.0232e-01  3.5665e-03  2.4043e-03  1.0691e-03  0:02:23 1760
   241  3.6065e-03  3.2137e-03  4.2080e-03  2.1984e-01  3.6037e-03  2.4012e-03  1.0662e-03  0:07:46 1759
   242  3.6319e-03  3.1828e-03  4.2366e-03  2.3784e-01  3.6292e-03  2.3987e-03  1.0671e-03  0:06:12 1758

  iter  continuity  x-velocity  y-velocity  z-velocity      energy           k       omega     time/iter
   243  3.6530e-03  3.1509e-03  4.2597e-03  2.5626e-01  3.6504e-03  2.3965e-03  1.0671e-03  0:04:58 1757
   244  3.6723e-03  3.1184e-03  4.2776e-03  2.7491e-01  3.6698e-03  2.3974e-03  1.0637e-03  0:03:58 1756
   245  3.6885e-03  3.0892e-03  4.2931e-03  2.9373e-01  3.6861e-03  2.3996e-03  1.0629e-03  0:03:10 1755
   246  3.7029e-03  3.0585e-03  4.3162e-03  3.1231e-01  3.7006e-03  2.4036e-03  1.0620e-03  0:02:32 1754
   247  3.7123e-03  3.0274e-03  4.3391e-03  3.3062e-01  3.7100e-03  2.4041e-03  1.0655e-03  0:02:02 1753
   248  3.7130e-03  2.9965e-03  4.3608e-03  3.4864e-01  3.7108e-03  2.4040e-03  1.0624e-03  0:07:28 1752
   249  3.7136e-03  2.9656e-03  4.3761e-03  3.6604e-01  3.7115e-03  2.4045e-03  1.0606e-03  0:05:58 1751
   250  3.7000e-03  2.9385e-03  4.3810e-03  3.8261e-01  3.6979e-03  2.4071e-03  1.0631e-03  0:04:46 1750
   251  3.6739e-03  2.9132e-03  4.3834e-03  3.9819e-01  3.6719e-03  2.4085e-03  1.0655e-03  0:03:49 1749
   252  3.6388e-03  2.8892e-03  4.3791e-03  4.1262e-01  3.6369e-03  2.4081e-03  1.0683e-03  0:03:03 1748
   253  3.5963e-03  2.8663e-03  4.3684e-03  4.2601e-01  3.5945e-03  2.4104e-03  1.0660e-03  0:02:26 1747

  iter  continuity  x-velocity  y-velocity  z-velocity      energy           k       omega     time/iter
   254  3.5490e-03  2.8431e-03  4.3538e-03  4.3813e-01  3.5472e-03  2.4103e-03  1.0613e-03  0:01:57 1746
   255  3.4926e-03  2.8193e-03  4.3352e-03  4.4903e-01  3.4909e-03  2.4113e-03  1.0605e-03  0:07:23 1745
   256  3.4344e-03  2.7968e-03  4.3222e-03  4.5848e-01  3.4326e-03  2.4142e-03  1.0638e-03  0:05:54 1744
   257  3.3848e-03  2.7673e-03  4.3022e-03  4.6652e-01  3.3830e-03  2.4173e-03  1.0658e-03  0:04:43 1743
   258  3.3393e-03  2.7370e-03  4.2806e-03  4.7300e-01  3.3373e-03  2.4213e-03  1.0684e-03  0:03:46 1742
   259  3.2952e-03  2.7096e-03  4.2547e-03  4.7798e-01  3.2931e-03  2.4241e-03  1.0724e-03  0:03:01 1741
   260  3.2558e-03  2.6986e-03  4.2273e-03  4.8219e-01  3.2539e-03  2.4234e-03  1.0664e-03  0:02:25 1740
   261  3.2006e-03  2.6962e-03  4.1955e-03  4.8534e-01  3.1987e-03  2.4233e-03  1.0670e-03  0:07:43 1739
   262  3.1321e-03  2.6954e-03  4.1647e-03  4.8711e-01  3.1303e-03  2.4226e-03  1.0664e-03  0:06:11 1738
   263  3.0613e-03  2.6927e-03  4.1292e-03  4.8722e-01  3.0595e-03  2.4184e-03  1.0666e-03  0:04:56 1737
   264  3.0019e-03  2.6899e-03  4.0928e-03  4.8579e-01  3.0000e-03  2.4143e-03  1.0698e-03  0:03:57 1736

  iter  continuity  x-velocity  y-velocity  z-velocity      energy           k       omega     time/iter
   265  2.9452e-03  2.6878e-03  4.0595e-03  4.8309e-01  2.9433e-03  2.4108e-03  1.0682e-03  0:03:09 1735
   266  2.8957e-03  2.6795e-03  4.0159e-03  4.7907e-01  2.8937e-03  2.4050e-03  1.0698e-03  0:02:31 1734
   267  2.8640e-03  2.6696e-03  3.9768e-03  4.7366e-01  2.8618e-03  2.3980e-03  1.0709e-03  0:02:01 1733
   268  2.8313e-03  2.6742e-03  3.9495e-03  4.6706e-01  2.8291e-03  2.3909e-03  1.0643e-03  0:07:23 1732
   269  2.7992e-03  2.6925e-03  3.9272e-03  4.5935e-01  2.7971e-03  2.3834e-03  1.0599e-03  0:05:54 1731
   270  2.7483e-03  2.7115e-03  3.9199e-03  4.5055e-01  2.7463e-03  2.3779e-03  1.0599e-03  0:04:43 1730
   271  2.6876e-03  2.7318e-03  3.9187e-03  4.4043e-01  2.6856e-03  2.3724e-03  1.0585e-03  0:03:47 1729
   272  2.6347e-03  2.7519e-03  3.9140e-03  4.2976e-01  2.6328e-03  2.3699e-03  1.0611e-03  0:03:01 1728
   273  2.6014e-03  2.7710e-03  3.9071e-03  4.1842e-01  2.5995e-03  2.3648e-03  1.0643e-03  0:02:25 1727
   274  2.5766e-03  2.7847e-03  3.8984e-03  4.0614e-01  2.5746e-03  2.3594e-03  1.0666e-03  0:01:56 1726
   275  2.5636e-03  2.7988e-03  3.8881e-03  3.9315e-01  2.5614e-03  2.3566e-03  1.0615e-03  0:07:18 1725

  iter  continuity  x-velocity  y-velocity  z-velocity      energy           k       omega     time/iter
   276  2.5602e-03  2.8104e-03  3.8842e-03  3.7959e-01  2.5579e-03  2.3532e-03  1.0559e-03  0:05:50 1724
   277  2.5670e-03  2.8243e-03  3.8872e-03  3.6550e-01  2.5646e-03  2.3515e-03  1.0504e-03  0:04:40 1723
   278  2.5638e-03  2.8649e-03  3.9055e-03  3.5099e-01  2.5615e-03  2.3470e-03  1.0505e-03  0:03:44 1722
   279  2.5436e-03  2.9026e-03  3.9268e-03  3.3647e-01  2.5413e-03  2.3419e-03  1.0473e-03  0:02:59 1721
   280  2.5097e-03  2.9335e-03  3.9514e-03  3.2161e-01  2.5074e-03  2.3362e-03  1.0471e-03  0:02:23 1720
   281  2.4696e-03  2.9575e-03  3.9855e-03  3.0645e-01  2.4673e-03  2.3359e-03  1.0425e-03  0:07:38 1719
   282  2.4310e-03  2.9726e-03  4.0180e-03  2.9206e-01  2.4285e-03  2.3431e-03  1.0419e-03  0:06:06 1718
   283  2.4073e-03  2.9830e-03  4.0515e-03  2.7781e-01  2.4046e-03  2.3582e-03  1.0421e-03  0:04:53 1717
   284  2.3840e-03  2.9937e-03  4.0872e-03  2.6370e-01  2.3810e-03  2.3752e-03  1.0436e-03  0:03:54 1716
   285  2.3636e-03  3.0039e-03  4.1247e-03  2.4993e-01  2.3602e-03  2.3948e-03  1.0422e-03  0:03:07 1715
   286  2.3472e-03  3.0127e-03  4.1658e-03  2.3655e-01  2.3437e-03  2.4101e-03  1.0394e-03  0:02:30 1714

  iter  continuity  x-velocity  y-velocity  z-velocity      energy           k       omega     time/iter
   287  2.3319e-03  3.0185e-03  4.2054e-03  2.2372e-01  2.3282e-03  2.4226e-03  1.0384e-03  0:02:00 1713
   288  2.3242e-03  3.0325e-03  4.2501e-03  2.1137e-01  2.3203e-03  2.4354e-03  1.0404e-03  0:07:18 1712
   289  2.3059e-03  3.0636e-03  4.2972e-03  1.9969e-01  2.3019e-03  2.4509e-03  1.0481e-03  0:05:50 1711
   290  2.2686e-03  3.0887e-03  4.3413e-03  1.8876e-01  2.2646e-03  2.4657e-03  1.0495e-03  0:04:40 1710
   291  2.2199e-03  3.1030e-03  4.3902e-03  1.7859e-01  2.2158e-03  2.4832e-03  1.0533e-03  0:03:44 1709
   292  2.1751e-03  3.1085e-03  4.4378e-03  1.6899e-01  2.1707e-03  2.4978e-03  1.0577e-03  0:02:59 1708
   293  2.1322e-03  3.1064e-03  4.4830e-03  1.6004e-01  2.1275e-03  2.5069e-03  1.0639e-03  0:02:23 1707
   294  2.0901e-03  3.1041e-03  4.5288e-03  1.5183e-01  2.0850e-03  2.5119e-03  1.0651e-03  0:01:54 1706
   295  2.0555e-03  3.1048e-03  4.5680e-03  1.4440e-01  2.0501e-03  2.5132e-03  1.0628e-03  0:07:12 1705
   296  2.0299e-03  3.1064e-03  4.6028e-03  1.3753e-01  2.0242e-03  2.5193e-03  1.0627e-03  0:05:46 1704
   297  2.0059e-03  3.1096e-03  4.6451e-03  1.3121e-01  2.0001e-03  2.5204e-03  1.0650e-03  0:04:36 1703

  iter  continuity  x-velocity  y-velocity  z-velocity      energy           k       omega     time/iter
   298  2.0100e-03  3.1143e-03  4.6823e-03  1.2540e-01  2.0042e-03  2.5220e-03  1.0664e-03  0:03:41 1702
   299  2.0097e-03  3.1186e-03  4.7249e-03  1.2023e-01  2.0039e-03  2.5272e-03  1.0668e-03  0:02:57 1701
   300  2.0084e-03  3.1289e-03  4.7691e-03  1.1550e-01  2.0026e-03  2.5372e-03  1.0668e-03  0:02:21 1700
   301  2.0092e-03  3.1488e-03  4.8083e-03  1.1124e-01  2.0036e-03  2.5455e-03  1.0706e-03  0:07:33 1699
   302  2.0027e-03  3.1684e-03  4.8397e-03  1.0745e-01  1.9972e-03  2.5515e-03  1.0723e-03  0:06:02 1698
   303  1.9946e-03  3.1864e-03  4.8611e-03  1.0404e-01  1.9892e-03  2.5591e-03  1.0723e-03  0:04:49 1697
   304  1.9884e-03  3.2018e-03  4.8882e-03  1.0097e-01  1.9829e-03  2.5687e-03  1.0704e-03  0:03:51 1696
   305  1.9932e-03  3.2135e-03  4.9151e-03  9.8115e-02  1.9877e-03  2.5843e-03  1.0716e-03  0:03:05 1695
   306  2.0102e-03  3.2259e-03  4.9472e-03  9.5609e-02  2.0047e-03  2.6012e-03  1.0708e-03  0:02:28 1694
   307  2.0411e-03  3.2400e-03  4.9761e-03  9.3321e-02  2.0357e-03  2.6167e-03  1.0708e-03  0:01:58 1693
   308  2.0740e-03  3.2579e-03  4.9964e-03  9.1158e-02  2.0688e-03  2.6311e-03  1.0657e-03  0:07:13 1692

  iter  continuity  x-velocity  y-velocity  z-velocity      energy           k       omega     time/iter
   309  2.1346e-03  3.2796e-03  5.0113e-03  8.8894e-02  2.1296e-03  2.6434e-03  1.0609e-03  0:05:46 1691
   310  2.2035e-03  3.3038e-03  5.0414e-03  8.6704e-02  2.1987e-03  2.6505e-03  1.0528e-03  0:04:37 1690
   311  2.2574e-03  3.3280e-03  5.0733e-03  8.4693e-02  2.2528e-03  2.6620e-03  1.0439e-03  0:03:41 1689
   312  2.3055e-03  3.3493e-03  5.0982e-03  8.2523e-02  2.3009e-03  2.6740e-03  1.0347e-03  0:02:57 1688
   313  2.3521e-03  3.3696e-03  5.1426e-03  8.0399e-02  2.3475e-03  2.6807e-03  1.0290e-03  0:02:21 1687
   314  2.4017e-03  3.3906e-03  5.1934e-03  7.8324e-02  2.3972e-03  2.6860e-03  1.0235e-03  0:07:30 1686
   315  2.4629e-03  3.4158e-03  5.2459e-03  7.6205e-02  2.4584e-03  2.6950e-03  1.0156e-03  0:06:00 1685
   316  2.5252e-03  3.4490e-03  5.2933e-03  7.4093e-02  2.5208e-03  2.7069e-03  1.0160e-03  0:04:48 1684
   317  2.5938e-03  3.4867e-03  5.3299e-03  7.2017e-02  2.5893e-03  2.7133e-03  1.0133e-03  0:03:50 1683
   318  2.6763e-03  3.5256e-03  5.3442e-03  7.0018e-02  2.6717e-03  2.7211e-03  1.0155e-03  0:03:04 1682
   319  2.7751e-03  3.5629e-03  5.3533e-03  6.7997e-02  2.7703e-03  2.7330e-03  1.0169e-03  0:02:27 1681

  iter  continuity  x-velocity  y-velocity  z-velocity      energy           k       omega     time/iter
   320  2.8886e-03  3.5979e-03  5.3552e-03  6.6037e-02  2.8837e-03  2.7491e-03  1.0209e-03  0:01:58 1680
   321  3.0133e-03  3.6334e-03  5.3579e-03  6.3992e-02  3.0081e-03  2.7570e-03  1.0201e-03  0:07:10 1679
   322  3.1510e-03  3.6756e-03  5.3747e-03  6.1858e-02  3.1457e-03  2.7654e-03  1.0212e-03  0:05:44 1678
   323  3.3011e-03  3.7182e-03  5.4018e-03  5.9943e-02  3.2956e-03  2.7750e-03  1.0220e-03  0:04:35 1677
   324  3.4372e-03  3.7622e-03  5.4533e-03  5.8222e-02  3.4315e-03  2.7860e-03  1.0242e-03  0:03:40 1676
   325  3.5681e-03  3.8055e-03  5.5102e-03  5.6699e-02  3.5622e-03  2.7964e-03  1.0282e-03  0:02:56 1675
   326  3.6932e-03  3.8460e-03  5.5656e-03  5.5397e-02  3.6870e-03  2.8049e-03  1.0405e-03  0:02:20 1674
   327  3.8157e-03  3.8830e-03  5.6143e-03  5.4374e-02  3.8093e-03  2.8081e-03  1.0461e-03  0:07:27 1673
   328  3.9386e-03  3.9219e-03  5.6468e-03  5.3474e-02  3.9320e-03  2.8135e-03  1.0518e-03  0:05:57 1672
   329  4.0626e-03  3.9662e-03  5.6478e-03  5.2901e-02  4.0557e-03  2.8217e-03  1.0632e-03  0:04:46 1671
   330  4.1891e-03  4.0170e-03  5.6329e-03  5.2641e-02  4.1820e-03  2.8279e-03  1.0771e-03  0:03:48 1670

  iter  continuity  x-velocity  y-velocity  z-velocity      energy           k       omega     time/iter
   331  4.3138e-03  4.0712e-03  5.6074e-03  5.2539e-02  4.3064e-03  2.8385e-03  1.0912e-03  0:03:03 1669
   332  4.4332e-03  4.1283e-03  5.5795e-03  5.2680e-02  4.4255e-03  2.8585e-03  1.1029e-03  0:02:26 1668
   333  4.5447e-03  4.1876e-03  5.5458e-03  5.2890e-02  4.5367e-03  2.8706e-03  1.1142e-03  0:01:57 1667
   334  4.6456e-03  4.2503e-03  5.5037e-03  5.3385e-02  4.6375e-03  2.8803e-03  1.1254e-03  0:07:07 1666
   335  4.7419e-03  4.3137e-03  5.4694e-03  5.4124e-02  4.7336e-03  2.8906e-03  1.1359e-03  0:05:41 1665
   336  4.8206e-03  4.3825e-03  5.4446e-03  5.5060e-02  4.8121e-03  2.8943e-03  1.1483e-03  0:04:33 1664
   337  4.8994e-03  4.4448e-03  5.4280e-03  5.6312e-02  4.8908e-03  2.8992e-03  1.1570e-03  0:03:38 1663
   338  4.9717e-03  4.5093e-03  5.4252e-03  5.7878e-02  4.9630e-03  2.9032e-03  1.1675e-03  0:02:54 1662
   339  5.0324e-03  4.5756e-03  5.4284e-03  5.9754e-02  5.0236e-03  2.9164e-03  1.1814e-03  0:02:19 1661
   340  5.0761e-03  4.6395e-03  5.4183e-03  6.1937e-02  5.0672e-03  2.9272e-03  1.1949e-03  0:01:51 1660
   341  5.0986e-03  4.7029e-03  5.4025e-03  6.4218e-02  5.0896e-03  2.9307e-03  1.2075e-03  0:07:01 1659

  iter  continuity  x-velocity  y-velocity  z-velocity      energy           k       omega     time/iter
   342  5.1046e-03  4.7645e-03  5.3799e-03  6.6507e-02  5.0956e-03  2.9409e-03  1.2157e-03  0:05:36 1658
   343  5.0903e-03  4.8229e-03  5.3443e-03  6.8881e-02  5.0812e-03  2.9484e-03  1.2200e-03  0:04:29 1657
   344  5.0508e-03  4.8831e-03  5.3139e-03  7.1243e-02  5.0417e-03  2.9542e-03  1.2280e-03  0:03:35 1656
   345  5.0062e-03  4.9572e-03  5.2932e-03  7.3653e-02  4.9972e-03  2.9691e-03  1.2308e-03  0:02:52 1655
   346  4.9400e-03  5.0254e-03  5.2783e-03  7.6023e-02  4.9312e-03  2.9790e-03  1.2308e-03  0:02:17 1654
   347  4.8545e-03  5.0851e-03  5.2854e-03  7.8153e-02  4.8458e-03  2.9922e-03  1.2310e-03  0:07:21 1653
   348  4.7612e-03  5.1454e-03  5.3126e-03  8.0420e-02  4.7525e-03  3.0090e-03  1.2321e-03  0:05:52 1652
   349  4.6732e-03  5.2096e-03  5.3355e-03  8.2287e-02  4.6646e-03  3.0263e-03  1.2382e-03  0:04:42 1651
   350  4.5869e-03  5.2708e-03  5.3708e-03  8.4086e-02  4.5784e-03  3.0514e-03  1.2483e-03  0:03:45 1650
   351  4.4939e-03  5.3277e-03  5.4126e-03  8.5958e-02  4.4855e-03  3.0687e-03  1.2574e-03  0:03:00 1649
   352  4.3867e-03  5.3805e-03  5.4610e-03  8.7645e-02  4.3784e-03  3.0893e-03  1.2555e-03  0:02:24 1648

  iter  continuity  x-velocity  y-velocity  z-velocity      energy           k       omega     time/iter
   353  4.2662e-03  5.4316e-03  5.5253e-03  8.9287e-02  4.2581e-03  3.1040e-03  1.2444e-03  0:07:24 1647
   354  4.1367e-03  5.4778e-03  5.6021e-03  9.0783e-02  4.1288e-03  3.1165e-03  1.2387e-03  0:05:55 1646
   355  3.9892e-03  5.5274e-03  5.6955e-03  9.1957e-02  3.9816e-03  3.1354e-03  1.2332e-03  0:04:44 1645
   356  3.8351e-03  5.5885e-03  5.7981e-03  9.2664e-02  3.8278e-03  3.1484e-03  1.2225e-03  0:03:47 1644
   357  3.6607e-03  5.6396e-03  5.8949e-03  9.3144e-02  3.6538e-03  3.1566e-03  1.2204e-03  0:03:02 1643
   358  3.4722e-03  5.6781e-03  5.9956e-03  9.3305e-02  3.4655e-03  3.1639e-03  1.2190e-03  0:02:25 1642
   359  3.2885e-03  5.7031e-03  6.1076e-03  9.3206e-02  3.2820e-03  3.1665e-03  1.2141e-03  0:01:56 1641
   360  3.1216e-03  5.7180e-03  6.2298e-03  9.3003e-02  3.1152e-03  3.1769e-03  1.2161e-03  0:07:01 1640
   361  2.9723e-03  5.7328e-03  6.3573e-03  9.2153e-02  2.9658e-03  3.1983e-03  1.2093e-03  0:05:36 1639
   362  2.8465e-03  5.7507e-03  6.5007e-03  9.1185e-02  2.8401e-03  3.2285e-03  1.2033e-03  0:04:29 1638
   363  2.7481e-03  5.7687e-03  6.6567e-03  8.9997e-02  2.7418e-03  3.2493e-03  1.1982e-03  0:03:35 1637

  iter  continuity  x-velocity  y-velocity  z-velocity      energy           k       omega     time/iter
   364  2.6675e-03  5.7850e-03  6.8091e-03  8.8511e-02  2.6612e-03  3.2762e-03  1.1974e-03  0:02:52 1636
   365  2.6203e-03  5.7947e-03  6.9522e-03  8.6810e-02  2.6141e-03  3.3000e-03  1.2033e-03  0:02:17 1635
   366  2.6094e-03  5.8080e-03  7.0953e-03  8.4745e-02  2.6034e-03  3.3176e-03  1.2102e-03  0:01:50 1634
   367  2.6216e-03  5.8291e-03  7.2343e-03  8.2325e-02  2.6158e-03  3.3347e-03  1.2103e-03  0:06:54 1633
   368  2.6516e-03  5.8480e-03  7.3549e-03  7.9517e-02  2.6460e-03  3.3654e-03  1.2072e-03  0:05:31 1632
   369  2.6882e-03  5.8539e-03  7.4634e-03  7.6487e-02  2.6826e-03  3.4079e-03  1.2087e-03  0:04:25 1631
   370  2.7560e-03  5.8423e-03  7.5772e-03  7.3359e-02  2.7502e-03  3.4397e-03  1.2078e-03  0:03:32 1630
   371  2.8471e-03  5.8182e-03  7.6933e-03  7.0133e-02  2.8411e-03  3.4554e-03  1.2075e-03  0:02:49 1629
   372  2.9520e-03  5.7919e-03  7.8122e-03  6.6916e-02  2.9457e-03  3.4737e-03  1.2065e-03  0:02:15 1628
   373  3.0699e-03  5.7655e-03  7.9361e-03  6.3676e-02  3.0632e-03  3.4865e-03  1.2141e-03  0:07:14 1627
   374  3.2015e-03  5.7408e-03  8.0494e-03  6.0528e-02  3.1945e-03  3.4963e-03  1.2156e-03  0:05:47 1626

  iter  continuity  x-velocity  y-velocity  z-velocity      energy           k       omega     time/iter
   375  3.3461e-03  5.7163e-03  8.1563e-03  5.7545e-02  3.3389e-03  3.4897e-03  1.2270e-03  0:04:37 1625
   376  3.4917e-03  5.6919e-03  8.2531e-03  5.4906e-02  3.4843e-03  3.4891e-03  1.2295e-03  0:03:42 1624
   377  3.6449e-03  5.6709e-03  8.3460e-03  5.2463e-02  3.6374e-03  3.4842e-03  1.2332e-03  0:02:57 1623
   378  3.8095e-03  5.6524e-03  8.4335e-03  5.0545e-02  3.8018e-03  3.4792e-03  1.2316e-03  0:02:22 1622
   379  3.9723e-03  5.6370e-03  8.5137e-03  4.9330e-02  3.9645e-03  3.4742e-03  1.2363e-03  0:01:53 1621
   380  4.1230e-03  5.6214e-03  8.5895e-03  4.8905e-02  4.1150e-03  3.4754e-03  1.2385e-03  0:06:55 1620
   381  4.2569e-03  5.5950e-03  8.6640e-03  4.9207e-02  4.2486e-03  3.4726e-03  1.2397e-03  0:05:31 1619
   382  4.3697e-03  5.5540e-03  8.7369e-03  5.0447e-02  4.3612e-03  3.4651e-03  1.2458e-03  0:04:25 1618
   383  4.4668e-03  5.5056e-03  8.8085e-03  5.2566e-02  4.4581e-03  3.4564e-03  1.2461e-03  0:03:32 1617
   384  4.5562e-03  5.4615e-03  8.8635e-03  5.5533e-02  4.5472e-03  3.4330e-03  1.2492e-03  0:02:49 1616
   385  4.6309e-03  5.4225e-03  8.9134e-03  5.9211e-02  4.6217e-03  3.4167e-03  1.2470e-03  0:02:15 1615

  iter  continuity  x-velocity  y-velocity  z-velocity      energy           k       omega     time/iter
   386  4.6912e-03  5.3866e-03  8.9650e-03  6.3432e-02  4.6819e-03  3.4005e-03  1.2425e-03  0:01:48 1614
   387  4.7413e-03  5.3516e-03  9.0217e-03  6.8056e-02  4.7318e-03  3.3803e-03  1.2446e-03  0:06:49 1613
   388  4.7819e-03  5.3173e-03  9.0752e-03  7.3005e-02  4.7724e-03  3.3664e-03  1.2448e-03  0:05:27 1612
   389  4.8128e-03  5.2867e-03  9.1187e-03  7.8181e-02  4.8032e-03  3.3554e-03  1.2570e-03  0:04:22 1611
   390  4.8283e-03  5.2579e-03  9.1524e-03  8.3422e-02  4.8187e-03  3.3630e-03  1.2635e-03  0:03:29 1610
   391  4.8316e-03  5.2344e-03  9.1883e-03  8.8662e-02  4.8220e-03  3.3853e-03  1.2638e-03  0:02:47 1609
   392  4.8179e-03  5.2160e-03  9.2359e-03  9.3943e-02  4.8083e-03  3.4026e-03  1.2633e-03  0:02:14 1608
   393  4.7865e-03  5.2036e-03  9.2868e-03  9.9166e-02  4.7770e-03  3.4111e-03  1.2560e-03  0:07:08 1607
   394  4.7397e-03  5.1906e-03  9.3407e-03  1.0430e-01  4.7302e-03  3.4117e-03  1.2586e-03  0:05:42 1606
   395  4.6753e-03  5.1805e-03  9.3967e-03  1.0935e-01  4.6659e-03  3.4113e-03  1.2654e-03  0:04:34 1605
   396  4.6036e-03  5.1726e-03  9.4476e-03  1.1429e-01  4.5944e-03  3.4155e-03  1.2730e-03  0:03:39 1604

  iter  continuity  x-velocity  y-velocity  z-velocity      energy           k       omega     time/iter
   397  4.5054e-03  5.1673e-03  9.4867e-03  1.1914e-01  4.4962e-03  3.4286e-03  1.2834e-03  0:02:55 1603
   398  4.4005e-03  5.1666e-03  9.5223e-03  1.2399e-01  4.3916e-03  3.4446e-03  1.2887e-03  0:02:20 1602
   399  4.2892e-03  5.1715e-03  9.5575e-03  1.2854e-01  4.2805e-03  3.4680e-03  1.3002e-03  0:01:52 1601
   400  4.1734e-03  5.1804e-03  9.6075e-03  1.3260e-01  4.1650e-03  3.4833e-03  1.3051e-03  0:06:49 1600
   401  4.0531e-03  5.1952e-03  9.6569e-03  1.3611e-01  4.0449e-03  3.5015e-03  1.3047e-03  0:05:27 1599
   402  3.9308e-03  5.2149e-03  9.6967e-03  1.3917e-01  3.9229e-03  3.5119e-03  1.3063e-03  0:04:22 1598
   403  3.8049e-03  5.2384e-03  9.7374e-03  1.4175e-01  3.7972e-03  3.5172e-03  1.3100e-03  0:03:29 1597
   404  3.6808e-03  5.2668e-03  9.7531e-03  1.4390e-01  3.6734e-03  3.5476e-03  1.3224e-03  0:02:47 1596
   405  3.5646e-03  5.3015e-03  9.7533e-03  1.4554e-01  3.5575e-03  3.5685e-03  1.3285e-03  0:02:14 1595
   406  3.4579e-03  5.3462e-03  9.7414e-03  1.4673e-01  3.4512e-03  3.5878e-03  1.3346e-03  0:01:47 1594
   407  3.3630e-03  5.3946e-03  9.7262e-03  1.4749e-01  3.3566e-03  3.6135e-03  1.3485e-03  0:06:44 1593

  iter  continuity  x-velocity  y-velocity  z-velocity      energy           k       omega     time/iter
   408  3.2866e-03  5.4443e-03  9.7131e-03  1.4783e-01  3.2805e-03  3.6318e-03  1.3603e-03  0:05:23 1592
   409  3.2232e-03  5.4960e-03  9.7192e-03  1.4772e-01  3.2174e-03  3.6504e-03  1.3724e-03  0:04:18 1591
   410  3.1890e-03  5.5468e-03  9.7280e-03  1.4712e-01  3.1835e-03  3.6729e-03  1.3807e-03  0:03:27 1590
   411  3.1845e-03  5.5974e-03  9.7281e-03  1.4613e-01  3.1793e-03  3.7029e-03  1.3899e-03  0:02:45 1589
   412  3.2070e-03  5.6467e-03  9.7180e-03  1.4469e-01  3.2019e-03  3.7310e-03  1.3981e-03  0:02:12 1588
   413  3.2392e-03  5.7012e-03  9.6954e-03  1.4274e-01  3.2344e-03  3.7543e-03  1.4071e-03  0:07:03 1587
   414  3.3028e-03  5.7645e-03  9.6364e-03  1.4039e-01  3.2981e-03  3.7792e-03  1.4156e-03  0:05:38 1586
   415  3.3698e-03  5.8283e-03  9.5482e-03  1.3760e-01  3.3653e-03  3.8067e-03  1.4243e-03  0:04:30 1585
   416  3.4570e-03  5.8903e-03  9.4506e-03  1.3444e-01  3.4525e-03  3.8309e-03  1.4394e-03  0:03:36 1584
   417  3.5742e-03  5.9480e-03  9.3342e-03  1.3094e-01  3.5697e-03  3.8507e-03  1.4527e-03  0:02:53 1583
   418  3.7252e-03  6.0031e-03  9.1977e-03  1.2708e-01  3.7206e-03  3.8733e-03  1.4588e-03  0:02:18 1582

  iter  continuity  x-velocity  y-velocity  z-velocity      energy           k       omega     time/iter
   419  3.9124e-03  6.0628e-03  9.0631e-03  1.2298e-01  3.9077e-03  3.8904e-03  1.4650e-03  0:01:50 1581
   420  4.1157e-03  6.1206e-03  8.9341e-03  1.1858e-01  4.1107e-03  3.9190e-03  1.4709e-03  0:06:44 1580
   421  4.3164e-03  6.1757e-03  8.8145e-03  1.1406e-01  4.3113e-03  3.9339e-03  1.4774e-03  0:05:23 1579
   422  4.5175e-03  6.2440e-03  8.6814e-03  1.0940e-01  4.5121e-03  3.9531e-03  1.4822e-03  0:04:18 1578
   423  4.7226e-03  6.3162e-03  8.5481e-03  1.0476e-01  4.7171e-03  3.9703e-03  1.4875e-03  0:03:27 1577
   424  4.9099e-03  6.3740e-03  8.4270e-03  1.0012e-01  4.9043e-03  3.9964e-03  1.4972e-03  0:02:45 1576
   425  5.0917e-03  6.4181e-03  8.3280e-03  9.5611e-02  5.0860e-03  4.0169e-03  1.5042e-03  0:02:12 1575
   426  5.2754e-03  6.4516e-03  8.2087e-03  9.1306e-02  5.2696e-03  4.0291e-03  1.5105e-03  0:07:00 1574
   427  5.4552e-03  6.4768e-03  8.0861e-03  8.7337e-02  5.4492e-03  4.0524e-03  1.5233e-03  0:05:36 1573
   428  5.6318e-03  6.5160e-03  7.9473e-03  8.3701e-02  5.6255e-03  4.0735e-03  1.5276e-03  0:04:29 1572
   429  5.8075e-03  6.5730e-03  7.7981e-03  8.0547e-02  5.8010e-03  4.0913e-03  1.5222e-03  0:03:35 1571

  iter  continuity  x-velocity  y-velocity  z-velocity      energy           k       omega     time/iter
   430  5.9678e-03  6.6251e-03  7.6738e-03  7.8133e-02  5.9612e-03  4.1138e-03  1.5139e-03  0:02:52 1570
   431  6.0822e-03  6.6865e-03  7.5916e-03  7.6508e-02  6.0756e-03  4.1214e-03  1.5134e-03  0:02:17 1569
   432  6.1806e-03  6.7489e-03  7.5398e-03  7.5888e-02  6.1739e-03  4.1279e-03  1.5053e-03  0:01:50 1568
   433  6.2456e-03  6.7878e-03  7.5136e-03  7.6362e-02  6.2389e-03  4.1384e-03  1.5004e-03  0:06:41 1567
   434  6.2950e-03  6.7899e-03  7.5161e-03  7.7768e-02  6.2884e-03  4.1600e-03  1.5068e-03  0:05:21 1566
   435  6.3363e-03  6.7607e-03  7.5371e-03  8.0029e-02  6.3296e-03  4.1775e-03  1.5079e-03  0:04:16 1565
   436  6.3575e-03  6.7113e-03  7.5756e-03  8.3083e-02  6.3508e-03  4.1969e-03  1.5085e-03  0:03:25 1564
   437  6.3653e-03  6.6531e-03  7.6308e-03  8.6899e-02  6.3586e-03  4.2106e-03  1.5014e-03  0:02:44 1563
   438  6.3709e-03  6.6055e-03  7.7078e-03  9.1269e-02  6.3642e-03  4.2285e-03  1.4957e-03  0:07:23 1562
   439  6.3640e-03  6.6017e-03  7.8050e-03  9.6108e-02  6.3573e-03  4.2361e-03  1.4886e-03  0:05:55 1561
   440  6.3540e-03  6.6497e-03  7.9341e-03  1.0105e-01  6.3474e-03  4.2505e-03  1.4957e-03  0:04:43 1560

  iter  continuity  x-velocity  y-velocity  z-velocity      energy           k       omega     time/iter
   441  6.2938e-03  6.7085e-03  8.0831e-03  1.0600e-01  6.2874e-03  4.2610e-03  1.5012e-03  0:03:47 1559
   442  6.1885e-03  6.7332e-03  8.2317e-03  1.1090e-01  6.1824e-03  4.2766e-03  1.4927e-03  0:03:01 1558
   443  6.0463e-03  6.7113e-03  8.3884e-03  1.1588e-01  6.0404e-03  4.2856e-03  1.4853e-03  0:02:25 1557
   444  5.8804e-03  6.6418e-03  8.5538e-03  1.2079e-01  5.8746e-03  4.2905e-03  1.4767e-03  0:07:07 1556
   445  5.6985e-03  6.5423e-03  8.7393e-03  1.2550e-01  5.6928e-03  4.2968e-03  1.4735e-03  0:05:41 1555
   446  5.5050e-03  6.4154e-03  8.9436e-03  1.2993e-01  5.4994e-03  4.2873e-03  1.4642e-03  0:04:33 1554
   447  5.3052e-03  6.2850e-03  9.1466e-03  1.3403e-01  5.2998e-03  4.2935e-03  1.4622e-03  0:03:38 1553
   448  5.1148e-03  6.1716e-03  9.3328e-03  1.3783e-01  5.1095e-03  4.2933e-03  1.4551e-03  0:02:54 1552
   449  4.9227e-03  6.0875e-03  9.5014e-03  1.4125e-01  4.9176e-03  4.2887e-03  1.4514e-03  0:02:19 1551
   450  4.7556e-03  6.0736e-03  9.6642e-03  1.4418e-01  4.7506e-03  4.2847e-03  1.4475e-03  0:01:52 1550
   451  4.5820e-03  6.1004e-03  9.8221e-03  1.4660e-01  4.5772e-03  4.2856e-03  1.4400e-03  0:06:39 1549

  iter  continuity  x-velocity  y-velocity  z-velocity      energy           k       omega     time/iter
   452  4.3858e-03  6.0986e-03  9.9783e-03  1.4874e-01  4.3811e-03  4.2731e-03  1.4306e-03  0:05:19 1548
   453  4.1731e-03  6.0394e-03  1.0131e-02  1.5049e-01  4.1685e-03  4.2636e-03  1.4216e-03  0:04:15 1547
   454  3.9480e-03  5.9349e-03  1.0280e-02  1.5177e-01  3.9434e-03  4.2631e-03  1.4053e-03  0:03:24 1546
   455  3.7254e-03  5.8006e-03  1.0407e-02  1.5271e-01  3.7206e-03  4.2628e-03  1.3923e-03  0:02:43 1545
   456  3.5314e-03  5.6519e-03  1.0510e-02  1.5330e-01  3.5264e-03  4.2540e-03  1.3867e-03  0:02:10 1544
   457  3.3877e-03  5.5039e-03  1.0602e-02  1.5349e-01  3.3824e-03  4.2314e-03  1.3888e-03  0:01:44 1543
   458  3.3144e-03  5.3780e-03  1.0684e-02  1.5310e-01  3.3087e-03  4.2011e-03  1.3843e-03  0:06:32 1542
   459  3.3363e-03  5.2973e-03  1.0763e-02  1.5230e-01  3.3302e-03  4.1841e-03  1.3853e-03  0:05:13 1541
   460  3.4444e-03  5.2402e-03  1.0839e-02  1.5101e-01  3.4380e-03  4.1732e-03  1.3797e-03  0:04:10 1540
   461  3.6147e-03  5.1989e-03  1.0904e-02  1.4951e-01  3.6079e-03  4.1499e-03  1.3694e-03  0:03:20 1539
   462  3.8314e-03  5.1623e-03  1.0942e-02  1.4772e-01  3.8243e-03  4.1172e-03  1.3603e-03  0:02:40 1538

  iter  continuity  x-velocity  y-velocity  z-velocity      energy           k       omega     time/iter
   463  4.1201e-03  5.1091e-03  1.0960e-02  1.4576e-01  4.1124e-03  4.0849e-03  1.3528e-03  0:02:08 1537
   464  4.3497e-03  5.0370e-03  1.0977e-02  1.4357e-01  4.3416e-03  4.0510e-03  1.3491e-03  0:06:49 1536
   465  4.5996e-03  4.9540e-03  1.0995e-02  1.4113e-01  4.5910e-03  4.0156e-03  1.3376e-03  0:05:27 1535
   466  4.8625e-03  4.8683e-03  1.1007e-02  1.3855e-01  4.8534e-03  3.9860e-03  1.3283e-03  0:04:22 1534
   467  5.1374e-03  4.7848e-03  1.1015e-02  1.3589e-01  5.1280e-03  3.9501e-03  1.3196e-03  0:03:29 1533
   468  5.4503e-03  4.7042e-03  1.1005e-02  1.3312e-01  5.4404e-03  3.9148e-03  1.3202e-03  0:02:47 1532
   469  5.7295e-03  4.6342e-03  1.0985e-02  1.3016e-01  5.7193e-03  3.8914e-03  1.3174e-03  0:02:14 1531
   470  6.0045e-03  4.5829e-03  1.0962e-02  1.2691e-01  5.9940e-03  3.8670e-03  1.3149e-03  0:01:47 1530
   471  6.2963e-03  4.5487e-03  1.0948e-02  1.2363e-01  6.2855e-03  3.8375e-03  1.3095e-03  0:06:31 1529
   472  6.5339e-03  4.5319e-03  1.0937e-02  1.2020e-01  6.5229e-03  3.8182e-03  1.3016e-03  0:05:13 1528
   473  6.7176e-03  4.5302e-03  1.0920e-02  1.1678e-01  6.7065e-03  3.7946e-03  1.2869e-03  0:04:10 1527

  iter  continuity  x-velocity  y-velocity  z-velocity      energy           k       omega     time/iter
   474  6.8589e-03  4.5394e-03  1.0899e-02  1.1343e-01  6.8476e-03  3.7679e-03  1.2830e-03  0:03:20 1526
   475  6.9511e-03  4.5580e-03  1.0874e-02  1.1019e-01  6.9397e-03  3.7339e-03  1.2850e-03  0:02:40 1525
   476  7.0068e-03  4.5784e-03  1.0860e-02  1.0705e-01  6.9954e-03  3.7158e-03  1.2887e-03  0:02:08 1524
   477  7.0540e-03  4.6012e-03  1.0858e-02  1.0384e-01  7.0427e-03  3.6889e-03  1.2901e-03  0:01:42 1523
   478  7.0611e-03  4.6248e-03  1.0866e-02  1.0077e-01  7.0499e-03  3.6731e-03  1.2896e-03  0:06:26 1522
   479  7.0126e-03  4.6535e-03  1.0881e-02  9.7989e-02  7.0016e-03  3.6548e-03  1.2888e-03  0:05:09 1521
   480  6.9120e-03  4.6859e-03  1.0898e-02  9.5383e-02  6.9012e-03  3.6342e-03  1.2877e-03  0:04:07 1520
   481  6.7686e-03  4.7235e-03  1.0902e-02  9.2933e-02  6.7581e-03  3.6133e-03  1.2854e-03  0:03:17 1519
   482  6.6023e-03  4.7692e-03  1.0900e-02  9.0596e-02  6.5921e-03  3.5868e-03  1.2866e-03  0:02:38 1518
   483  6.4062e-03  4.8233e-03  1.0880e-02  8.8583e-02  6.3962e-03  3.5789e-03  1.2955e-03  0:02:06 1517
   484  6.1890e-03  4.8829e-03  1.0858e-02  8.6961e-02  6.1793e-03  3.5742e-03  1.3001e-03  0:06:44 1516

  iter  continuity  x-velocity  y-velocity  z-velocity      energy           k       omega     time/iter
   485  5.9564e-03  4.9525e-03  1.0827e-02  8.5941e-02  5.9472e-03  3.5739e-03  1.3021e-03  0:05:23 1515
   486  5.7192e-03  5.0288e-03  1.0800e-02  8.5523e-02  5.7104e-03  3.5714e-03  1.3118e-03  0:04:18 1514
   487  5.4520e-03  5.1075e-03  1.0800e-02  8.5628e-02  5.4436e-03  3.5841e-03  1.3207e-03  0:03:26 1513
   488  5.2006e-03  5.1824e-03  1.0809e-02  8.5940e-02  5.1927e-03  3.5838e-03  1.3304e-03  0:02:45 1512
   489  4.9805e-03  5.2491e-03  1.0806e-02  8.6433e-02  4.9731e-03  3.5937e-03  1.3373e-03  0:02:12 1511
   490  4.7633e-03  5.3114e-03  1.0791e-02  8.6526e-02  4.7562e-03  3.6058e-03  1.3461e-03  0:01:45 1510
   491  4.5164e-03  5.3741e-03  1.0757e-02  8.6497e-02  4.5098e-03  3.6325e-03  1.3518e-03  0:06:26 1509
   492  4.2489e-03  5.4370e-03  1.0688e-02  8.6202e-02  4.2428e-03  3.6534e-03  1.3586e-03  0:05:09 1508
   493  3.9871e-03  5.5013e-03  1.0598e-02  8.6320e-02  3.9814e-03  3.6888e-03  1.3673e-03  0:04:07 1507
   494  3.7358e-03  5.5586e-03  1.0480e-02  8.6527e-02  3.7305e-03  3.7119e-03  1.3838e-03  0:03:17 1506
   495  3.5442e-03  5.6089e-03  1.0332e-02  8.7039e-02  3.5393e-03  3.7232e-03  1.3958e-03  0:02:38 1505

  iter  continuity  x-velocity  y-velocity  z-velocity      energy           k       omega     time/iter
   496  3.4599e-03  5.6636e-03  1.0170e-02  8.7765e-02  3.4553e-03  3.7380e-03  1.4022e-03  0:02:06 1504
   497  3.4778e-03  5.7188e-03  1.0010e-02  8.8694e-02  3.4735e-03  3.7532e-03  1.4119e-03  0:01:41 1503
   498  3.5916e-03  5.7718e-03  9.8548e-03  8.9529e-02  3.5873e-03  3.7621e-03  1.4156e-03  0:06:21 1502
   499  3.7363e-03  5.8236e-03  9.6985e-03  9.0289e-02  3.7321e-03  3.7825e-03  1.4208e-03  0:05:05 1501
   500  3.8922e-03  5.8810e-03  9.5434e-03  9.1227e-02  3.8881e-03  3.7971e-03  1.4314e-03  0:04:04 1500
   501  4.0828e-03  5.9318e-03  9.3666e-03  9.2396e-02  4.0789e-03  3.8135e-03  1.4360e-03  0:03:15 1499
   502  4.2895e-03  5.9659e-03  9.1796e-03  9.3437e-02  4.2857e-03  3.8287e-03  1.4446e-03  0:02:36 1498
   503  4.4665e-03  5.9871e-03  9.0143e-03  9.4899e-02  4.4627e-03  3.8429e-03  1.4616e-03  0:02:04 1497
   504  4.6689e-03  6.0027e-03  8.8441e-03  9.6408e-02  4.6651e-03  3.8495e-03  1.4727e-03  0:06:39 1496
   505  4.9012e-03  6.0352e-03  8.6748e-03  9.7800e-02  4.8972e-03  3.8690e-03  1.4768e-03  0:05:19 1495
   506  5.1251e-03  6.0749e-03  8.5082e-03  9.7952e-02  5.1209e-03  3.8915e-03  1.4826e-03  0:04:15 1494

  iter  continuity  x-velocity  y-velocity  z-velocity      energy           k       omega     time/iter
   507  5.3469e-03  6.1066e-03  8.3709e-03  9.8657e-02  5.3425e-03  3.9050e-03  1.4845e-03  0:03:24 1493
   508  5.5505e-03  6.1417e-03  8.2844e-03  1.0038e-01  5.5460e-03  3.9130e-03  1.4887e-03  0:02:43 1492
   509  5.7138e-03  6.1765e-03  8.2410e-03  1.0283e-01  5.7094e-03  3.9184e-03  1.4928e-03  0:02:10 1491
   510  5.8458e-03  6.1753e-03  8.2246e-03  1.0524e-01  5.8413e-03  3.9180e-03  1.4979e-03  0:01:44 1490
   511  5.9273e-03  6.1360e-03  8.2394e-03  1.0774e-01  5.9227e-03  3.9260e-03  1.5083e-03  0:06:21 1489
   512  5.9769e-03  6.0749e-03  8.2714e-03  1.1012e-01  5.9722e-03  3.9248e-03  1.5134e-03  0:05:05 1488
   513  6.0397e-03  6.0050e-03  8.3395e-03  1.1251e-01  6.0350e-03  3.9297e-03  1.5101e-03  0:04:04 1487
   514  6.0782e-03  5.9429e-03  8.4332e-03  1.1497e-01  6.0734e-03  3.9219e-03  1.5068e-03  0:03:15 1486
   515  6.0704e-03  5.9747e-03  8.5502e-03  1.1705e-01  6.0656e-03  3.9306e-03  1.5084e-03  0:02:36 1485
   516  6.0207e-03  6.0329e-03  8.6924e-03  1.1770e-01  6.0159e-03  3.9348e-03  1.5166e-03  0:02:04 1484
   517  5.9520e-03  6.0804e-03  8.8479e-03  1.1914e-01  5.9474e-03  3.9440e-03  1.5171e-03  0:01:39 1483

  iter  continuity  x-velocity  y-velocity  z-velocity      energy           k       omega     time/iter
   518  5.8627e-03  6.0775e-03  9.0130e-03  1.2103e-01  5.8581e-03  3.9374e-03  1.5042e-03  0:06:16 1482
   519  5.7574e-03  6.0112e-03  9.1926e-03  1.2298e-01  5.7528e-03  3.9207e-03  1.5005e-03  0:05:01 1481
   520  5.6302e-03  5.9058e-03  9.3865e-03  1.2518e-01  5.6255e-03  3.9120e-03  1.4961e-03  0:04:00 1480
   521  5.4736e-03  5.7782e-03  9.5848e-03  1.2751e-01  5.4689e-03  3.9032e-03  1.4838e-03  0:03:12 1479
   522  5.2998e-03  5.6495e-03  9.7729e-03  1.3011e-01  5.2951e-03  3.9041e-03  1.4889e-03  0:02:34 1478
   523  5.1156e-03  5.5319e-03  9.9263e-03  1.3248e-01  5.1109e-03  3.9031e-03  1.4895e-03  0:02:03 1477
   524  4.9354e-03  5.4748e-03  1.0056e-02  1.3420e-01  4.9307e-03  3.8862e-03  1.4866e-03  0:01:38 1476
   525  4.7617e-03  5.4961e-03  1.0173e-02  1.3487e-01  4.7571e-03  3.8619e-03  1.4832e-03  0:06:13 1475
   526  4.5854e-03  5.5208e-03  1.0269e-02  1.3611e-01  4.5808e-03  3.8268e-03  1.4685e-03  0:04:59 1474
   527  4.4014e-03  5.4990e-03  1.0350e-02  1.3718e-01  4.3968e-03  3.8009e-03  1.4541e-03  0:03:59 1473
   528  4.2055e-03  5.4265e-03  1.0427e-02  1.3816e-01  4.2007e-03  3.7846e-03  1.4378e-03  0:03:11 1472

  iter  continuity  x-velocity  y-velocity  z-velocity      energy           k       omega     time/iter
   529  3.9912e-03  5.3124e-03  1.0503e-02  1.3865e-01  3.9862e-03  3.7618e-03  1.4209e-03  0:02:33 1471
   530  3.7849e-03  5.1802e-03  1.0570e-02  1.3948e-01  3.7797e-03  3.7410e-03  1.4114e-03  0:02:02 1470
   531  3.6047e-03  5.0388e-03  1.0613e-02  1.4034e-01  3.5993e-03  3.7159e-03  1.4007e-03  0:06:31 1469
   532  3.4797e-03  4.9164e-03  1.0631e-02  1.4065e-01  3.4739e-03  3.6782e-03  1.3867e-03  0:05:13 1468
   533  3.4289e-03  4.8464e-03  1.0629e-02  1.4076e-01  3.4229e-03  3.6485e-03  1.3697e-03  0:04:10 1467
   534  3.4411e-03  4.8033e-03  1.0637e-02  1.4063e-01  3.4349e-03  3.6222e-03  1.3591e-03  0:03:20 1466
   535  3.7172e-03  4.7776e-03  1.0641e-02  1.4102e-01  3.7111e-03  3.6076e-03  1.3485e-03  0:02:40 1465
   536  3.7116e-03  4.7475e-03  1.0639e-02  1.4055e-01  3.7053e-03  3.5919e-03  1.3296e-03  0:02:08 1464
   537  3.7539e-03  4.7050e-03  1.0613e-02  1.3977e-01  3.7473e-03  3.5803e-03  1.3155e-03  0:01:42 1463
   538  3.8314e-03  4.6596e-03  1.0578e-02  1.3877e-01  3.8247e-03  3.5451e-03  1.3042e-03  0:06:14 1462
   539  3.9301e-03  4.6113e-03  1.0544e-02  1.3765e-01  3.9232e-03  3.5130e-03  1.2912e-03  0:04:59 1461

  iter  continuity  x-velocity  y-velocity  z-velocity      energy           k       omega     time/iter
   540  4.1439e-03  4.5565e-03  1.0525e-02  1.3710e-01  4.1369e-03  3.4857e-03  1.2872e-03  0:03:59 1460
   541  4.2877e-03  4.4994e-03  1.0512e-02  1.3722e-01  4.2807e-03  3.4669e-03  1.2843e-03  0:03:11 1459
   542  4.4216e-03  4.4526e-03  1.0499e-02  1.3750e-01  4.4146e-03  3.4639e-03  1.2835e-03  0:02:33 1458
   543  4.4992e-03  4.4201e-03  1.0480e-02  1.3772e-01  4.4921e-03  3.4569e-03  1.2724e-03  0:02:02 1457
   544  4.5514e-03  4.4081e-03  1.0454e-02  1.3799e-01  4.5443e-03  3.4338e-03  1.2701e-03  0:01:38 1456
   545  4.6443e-03  4.4208e-03  1.0418e-02  1.3821e-01  4.6372e-03  3.4031e-03  1.2584e-03  0:06:09 1455
   546  4.7585e-03  4.4495e-03  1.0395e-02  1.3850e-01  4.7515e-03  3.3754e-03  1.2631e-03  0:04:55 1454
   547  4.8667e-03  4.4819e-03  1.0391e-02  1.3883e-01  4.8598e-03  3.3672e-03  1.2660e-03  0:03:56 1453
   548  4.9693e-03  4.5120e-03  1.0394e-02  1.3939e-01  4.9625e-03  3.3607e-03  1.2669e-03  0:03:09 1452
   549  5.0732e-03  4.5431e-03  1.0394e-02  1.4001e-01  5.0666e-03  3.3587e-03  1.2677e-03  0:02:31 1451
   550  5.1888e-03  4.5752e-03  1.0398e-02  1.4067e-01  5.1823e-03  3.3538e-03  1.2645e-03  0:02:01 1450

  iter  continuity  x-velocity  y-velocity  z-velocity      energy           k       omega     time/iter
   551  5.2196e-03  4.6084e-03  1.0385e-02  1.4163e-01  5.2132e-03  3.3418e-03  1.2632e-03  0:06:26 1449
   552  5.2244e-03  4.6455e-03  1.0358e-02  1.4254e-01  5.2181e-03  3.3230e-03  1.2644e-03  0:05:09 1448
   553  5.2232e-03  4.6889e-03  1.0324e-02  1.4396e-01  5.2171e-03  3.3194e-03  1.2712e-03  0:04:07 1447
   554  5.2373e-03  4.7450e-03  1.0282e-02  1.4510e-01  5.2314e-03  3.3126e-03  1.2713e-03  0:03:17 1446
   555  5.1524e-03  4.8043e-03  1.0247e-02  1.4648e-01  5.1467e-03  3.3091e-03  1.2813e-03  0:02:38 1445
   556  5.0480e-03  4.8693e-03  1.0204e-02  1.4865e-01  5.0424e-03  3.3140e-03  1.2904e-03  0:02:06 1444
   557  4.9255e-03  4.9318e-03  1.0172e-02  1.5088e-01  4.9200e-03  3.3015e-03  1.2903e-03  0:01:41 1443
   558  4.8368e-03  4.9919e-03  1.0141e-02  1.5399e-01  4.8315e-03  3.2925e-03  1.2923e-03  0:06:09 1442
   559  4.6809e-03  5.0581e-03  1.0089e-02  1.5706e-01  4.6759e-03  3.2812e-03  1.2847e-03  0:04:55 1441
   560  4.4913e-03  5.1215e-03  1.0014e-02  1.6006e-01  4.4865e-03  3.2758e-03  1.2844e-03  0:03:56 1440
   561  4.2691e-03  5.1718e-03  9.9146e-03  1.6231e-01  4.2645e-03  3.2732e-03  1.2950e-03  0:03:09 1439

  iter  continuity  x-velocity  y-velocity  z-velocity      energy           k       omega     time/iter
   562  4.0581e-03  5.2084e-03  9.8026e-03  1.6426e-01  4.0537e-03  3.2787e-03  1.2975e-03  0:02:31 1438
   563  3.8837e-03  5.2431e-03  9.6740e-03  1.6598e-01  3.8793e-03  3.2658e-03  1.3034e-03  0:02:00 1437
   564  3.7547e-03  5.2775e-03  9.5424e-03  1.6850e-01  3.7504e-03  3.2609e-03  1.3040e-03  0:01:36 1436
   565  3.6682e-03  5.3109e-03  9.4003e-03  1.7038e-01  3.6640e-03  3.2602e-03  1.3022e-03  0:06:04 1435
   566  3.5712e-03  5.3652e-03  9.2528e-03  1.7278e-01  3.5672e-03  3.2531e-03  1.2977e-03  0:04:51 1434
   567  3.4779e-03  5.4097e-03  9.0822e-03  1.7587e-01  3.4740e-03  3.2612e-03  1.2977e-03  0:03:53 1433
   568  3.3551e-03  5.4331e-03  8.9236e-03  1.7743e-01  3.3514e-03  3.2525e-03  1.3069e-03  0:03:06 1432
   569  3.2721e-03  5.4449e-03  8.7867e-03  1.7906e-01  3.2684e-03  3.2575e-03  1.3179e-03  0:02:29 1431
   570  3.2148e-03  5.4520e-03  8.6415e-03  1.8050e-01  3.2112e-03  3.2612e-03  1.3292e-03  0:01:59 1430
   571  3.2245e-03  5.4642e-03  8.4823e-03  1.8151e-01  3.2209e-03  3.2658e-03  1.3348e-03  0:06:21 1429
   572  3.2506e-03  5.4850e-03  8.3411e-03  1.8169e-01  3.2468e-03  3.2498e-03  1.3354e-03  0:05:04 1428

  iter  continuity  x-velocity  y-velocity  z-velocity      energy           k       omega     time/iter
   573  3.3073e-03  5.5136e-03  8.2292e-03  1.8145e-01  3.3035e-03  3.2401e-03  1.3353e-03  0:04:03 1427
   574  3.3335e-03  5.5515e-03  8.1580e-03  1.8183e-01  3.3298e-03  3.2339e-03  1.3406e-03  0:03:15 1426
   575  3.3473e-03  5.5566e-03  8.0971e-03  1.8211e-01  3.3436e-03  3.2258e-03  1.3396e-03  0:02:36 1425
   576  3.3455e-03  5.5127e-03  8.0512e-03  1.8183e-01  3.3418e-03  3.2186e-03  1.3383e-03  0:02:04 1424
   577  3.3551e-03  5.4488e-03  8.0273e-03  1.8028e-01  3.3514e-03  3.2014e-03  1.3442e-03  0:01:39 1423
   578  3.3698e-03  5.3790e-03  8.0322e-03  1.7803e-01  3.3660e-03  3.1961e-03  1.3375e-03  0:06:04 1422
   579  3.4244e-03  5.3281e-03  8.0517e-03  1.7611e-01  3.4206e-03  3.1976e-03  1.3442e-03  0:04:51 1421
   580  3.4998e-03  5.3357e-03  8.0690e-03  1.7414e-01  3.4960e-03  3.1870e-03  1.3498e-03  0:03:53 1420
   581  3.5963e-03  5.3786e-03  8.0972e-03  1.7089e-01  3.5925e-03  3.1720e-03  1.3563e-03  0:03:06 1419
   582  3.6605e-03  5.4158e-03  8.1383e-03  1.6834e-01  3.6569e-03  3.1554e-03  1.3557e-03  0:02:29 1418
   583  3.6691e-03  5.3946e-03  8.2003e-03  1.6593e-01  3.6654e-03  3.1402e-03  1.3416e-03  0:01:59 1417

  iter  continuity  x-velocity  y-velocity  z-velocity      energy           k       omega     time/iter
   584  3.6639e-03  5.3176e-03  8.2826e-03  1.6166e-01  3.6602e-03  3.1230e-03  1.3265e-03  0:01:35 1416
   585  3.6506e-03  5.2105e-03  8.3789e-03  1.5751e-01  3.6468e-03  3.1111e-03  1.3184e-03  0:05:59 1415
   586  3.6120e-03  5.0906e-03  8.4755e-03  1.5457e-01  3.6082e-03  3.1000e-03  1.3148e-03  0:04:47 1414
   587  3.5892e-03  4.9737e-03  8.5383e-03  1.5289e-01  3.5854e-03  3.0947e-03  1.3189e-03  0:03:49 1413
   588  3.5789e-03  4.8984e-03  8.5756e-03  1.5096e-01  3.5752e-03  3.0785e-03  1.3248e-03  0:03:03 1412
   589  3.5978e-03  4.8934e-03  8.6090e-03  1.4924e-01  3.5941e-03  3.0546e-03  1.3233e-03  0:02:27 1411
   590  3.6430e-03  4.9095e-03  8.6447e-03  1.4844e-01  3.6394e-03  3.0368e-03  1.3033e-03  0:01:57 1410
   591  3.6927e-03  4.9066e-03  8.6771e-03  1.4902e-01  3.6891e-03  3.0131e-03  1.2810e-03  0:06:15 1409
   592  3.7149e-03  4.8555e-03  8.7077e-03  1.4985e-01  3.7113e-03  2.9864e-03  1.2645e-03  0:05:00 1408
   593  3.7014e-03  4.7691e-03  8.7300e-03  1.5126e-01  3.6977e-03  2.9718e-03  1.2605e-03  0:04:00 1407
   594  3.6574e-03  4.6566e-03  8.7375e-03  1.5311e-01  3.6537e-03  2.9521e-03  1.2555e-03  0:03:12 1406

  iter  continuity  x-velocity  y-velocity  z-velocity      energy           k       omega     time/iter
   595  3.6003e-03  4.5282e-03  8.7447e-03  1.5626e-01  3.5966e-03  2.9229e-03  1.2423e-03  0:02:33 1405
   596  3.5680e-03  4.4237e-03  8.7425e-03  1.6001e-01  3.5641e-03  2.9006e-03  1.2329e-03  0:02:03 1404
   597  3.5717e-03  4.3557e-03  8.7292e-03  1.6505e-01  3.5679e-03  2.8869e-03  1.2282e-03  0:01:38 1403
   598  3.5994e-03  4.3119e-03  8.7030e-03  1.6933e-01  3.5956e-03  2.8756e-03  1.2200e-03  0:05:59 1402
   599  3.6528e-03  4.2912e-03  8.6757e-03  1.7446e-01  3.6489e-03  2.8689e-03  1.2062e-03  0:04:47 1401
   600  3.6931e-03  4.2662e-03  8.6655e-03  1.8056e-01  3.6892e-03  2.8540e-03  1.1970e-03  0:03:49 1400
   601  3.7098e-03  4.2272e-03  8.6400e-03  1.8675e-01  3.7058e-03  2.8429e-03  1.1834e-03  0:03:03 1399
   602  3.7047e-03  4.1740e-03  8.6149e-03  1.9230e-01  3.7006e-03  2.8286e-03  1.1731e-03  0:02:27 1398
   603  3.6660e-03  4.1100e-03  8.5882e-03  1.9637e-01  3.6618e-03  2.8126e-03  1.1650e-03  0:01:57 1397
   604  3.6201e-03  4.0426e-03  8.5525e-03  2.0062e-01  3.6158e-03  2.8048e-03  1.1656e-03  0:06:13 1396
   605  3.5813e-03  3.9764e-03  8.5037e-03  2.0583e-01  3.5769e-03  2.7840e-03  1.1605e-03  0:04:58 1395

  iter  continuity  x-velocity  y-velocity  z-velocity      energy           k       omega     time/iter
   606  3.5431e-03  3.9269e-03  8.4529e-03  2.1031e-01  3.5387e-03  2.7643e-03  1.1512e-03  0:03:58 1394
   607  3.5469e-03  3.8895e-03  8.4197e-03  2.1265e-01  3.5425e-03  2.7490e-03  1.1431e-03  0:03:10 1393
   608  3.5465e-03  3.8670e-03  8.3893e-03  2.1568e-01  3.5421e-03  2.7306e-03  1.1318e-03  0:02:32 1392
   609  3.5363e-03  3.8598e-03  8.3642e-03  2.1934e-01  3.5320e-03  2.7164e-03  1.1304e-03  0:02:02 1391
   610  3.5170e-03  3.8561e-03  8.3316e-03  2.2226e-01  3.5127e-03  2.7106e-03  1.1288e-03  0:01:37 1390
   611  3.4859e-03  3.8539e-03  8.2912e-03  2.2424e-01  3.4816e-03  2.7007e-03  1.1226e-03  0:05:56 1389
   612  3.4378e-03  3.8507e-03  8.2352e-03  2.2515e-01  3.4334e-03  2.6896e-03  1.1204e-03  0:04:44 1388
   613  3.3829e-03  3.8403e-03  8.1796e-03  2.2535e-01  3.3785e-03  2.6823e-03  1.1179e-03  0:03:47 1387
   614  3.2990e-03  3.8287e-03  8.1164e-03  2.2455e-01  3.2946e-03  2.6672e-03  1.1102e-03  0:03:02 1386
   615  3.2053e-03  3.8307e-03  8.0579e-03  2.2308e-01  3.2010e-03  2.6417e-03  1.1036e-03  0:02:25 1385
   616  3.1301e-03  3.8269e-03  7.9937e-03  2.1982e-01  3.1258e-03  2.6188e-03  1.0967e-03  0:01:56 1384

  iter  continuity  x-velocity  y-velocity  z-velocity      energy           k       omega     time/iter
   617  3.1018e-03  3.8207e-03  7.9257e-03  2.1777e-01  3.0975e-03  2.5981e-03  1.0920e-03  0:01:33 1383
   618  3.0835e-03  3.8132e-03  7.8492e-03  2.1614e-01  3.0793e-03  2.5989e-03  1.0924e-03  0:05:51 1382
   619  3.0659e-03  3.8162e-03  7.7759e-03  2.1455e-01  3.0617e-03  2.5975e-03  1.0925e-03  0:04:40 1381
   620  3.0511e-03  3.8305e-03  7.6971e-03  2.1263e-01  3.0469e-03  2.5914e-03  1.0925e-03  0:03:44 1380
   621  2.9801e-03  3.8638e-03  7.6077e-03  2.0942e-01  2.9761e-03  2.5754e-03  1.0937e-03  0:02:59 1379
   622  2.8870e-03  3.9052e-03  7.4939e-03  2.0594e-01  2.8832e-03  2.5552e-03  1.0850e-03  0:02:23 1378
   623  2.7709e-03  3.9238e-03  7.3881e-03  2.0093e-01  2.7673e-03  2.5243e-03  1.0720e-03  0:01:54 1377
   624  2.6817e-03  3.9157e-03  7.2929e-03  1.9587e-01  2.6781e-03  2.5140e-03  1.0702e-03  0:06:07 1376
   625  2.6240e-03  3.8918e-03  7.1974e-03  1.9095e-01  2.6204e-03  2.4915e-03  1.0693e-03  0:04:53 1375
   626  2.5903e-03  3.8655e-03  7.0799e-03  1.8610e-01  2.5866e-03  2.4793e-03  1.0667e-03  0:03:54 1374
[...]
  1838  1.0176e-06  6.0589e-07  3.7984e-07  3.8901e-03  1.0174e-06  3.2210e-07  7.9523e-08  0:00:31  162
  1839  1.0172e-06  6.0464e-07  3.7645e-07  3.8520e-03  1.0171e-06  3.2183e-07  7.8787e-08  0:00:25  161
  1840  1.0160e-06  6.0333e-07  3.7313e-07  3.8148e-03  1.0159e-06  3.2156e-07  7.8073e-08  0:00:20  160
  1841  1.0139e-06  6.0195e-07  3.6990e-07  3.7784e-03  1.0138e-06  3.2126e-07  7.7392e-08  0:00:16  159
  1842  1.0109e-06  6.0051e-07  3.6675e-07  3.7429e-03  1.0108e-06  3.2092e-07  7.6725e-08  0:00:12  158
  1843  1.0069e-06  5.9901e-07  3.6369e-07  3.7080e-03  1.0068e-06  3.2056e-07  7.6087e-08  0:00:10  157
  1844  1.0021e-06  5.9744e-07  3.6072e-07  3.6738e-03  1.0020e-06  3.2018e-07  7.5487e-08  0:00:08  156
  1845  9.9626e-07  5.9582e-07  3.5784e-07  3.6402e-03  9.9616e-07  3.1976e-07  7.4899e-08  0:00:06  155
  1846  9.8953e-07  5.9414e-07  3.5505e-07  3.6072e-03  9.8944e-07  3.1934e-07  7.4329e-08  0:00:36  154
  1847  9.8189e-07  5.9241e-07  3.5235e-07  3.5745e-03  9.8179e-07  3.1888e-07  7.3779e-08  0:00:28  153
  1848  9.7334e-07  5.9061e-07  3.4974e-07  3.5422e-03  9.7324e-07  3.1837e-07  7.3248e-08  0:00:23  152

  iter  continuity  x-velocity  y-velocity  z-velocity      energy           k       omega     time/iter
  1849  9.6389e-07  5.8877e-07  3.4722e-07  3.5103e-03  9.6380e-07  3.1780e-07  7.2741e-08  0:00:18  151
  1850  9.5356e-07  5.8687e-07  3.4479e-07  3.4785e-03  9.5346e-07  3.1721e-07  7.2243e-08  0:00:14  150
  1851  9.4236e-07  5.8492e-07  3.4245e-07  3.4470e-03  9.4226e-07  3.1657e-07  7.1764e-08  0:00:11  149
  1852  9.3032e-07  5.8292e-07  3.4020e-07  3.4155e-03  9.3021e-07  3.1587e-07  7.1302e-08  0:00:09  148
  1853  9.1744e-07  5.8087e-07  3.3803e-07  3.3841e-03  9.1733e-07  3.1513e-07  7.0860e-08  0:00:07  147
  1854  9.0376e-07  5.7877e-07  3.3595e-07  3.3527e-03  9.0365e-07  3.1436e-07  7.0429e-08  0:00:06  146
  1855  8.8931e-07  5.7664e-07  3.3395e-07  3.3213e-03  8.8919e-07  3.1354e-07  7.0004e-08  0:00:34  145
  1856  8.7410e-07  5.7446e-07  3.3202e-07  3.2898e-03  8.7398e-07  3.1269e-07  6.9594e-08  0:00:27  144
  1857  8.5818e-07  5.7224e-07  3.3017e-07  3.2582e-03  8.5805e-07  3.1180e-07  6.9215e-08  0:00:21  143
  1858  8.4158e-07  5.6998e-07  3.2840e-07  3.2265e-03  8.4144e-07  3.1087e-07  6.8844e-08  0:00:17  142
  1859  8.2433e-07  5.6769e-07  3.2669e-07  3.1947e-03  8.2419e-07  3.0989e-07  6.8484e-08  0:00:13  141

  iter  continuity  x-velocity  y-velocity  z-velocity      energy           k       omega     time/iter
  1860  8.0647e-07  5.6537e-07  3.2504e-07  3.1628e-03  8.0632e-07  3.0886e-07  6.8127e-08  0:00:11  140
  1861  7.8805e-07  5.6302e-07  3.2346e-07  3.1307e-03  7.8789e-07  3.0779e-07  6.7777e-08  0:00:08  139
  1862  7.6910e-07  5.6064e-07  3.2193e-07  3.0986e-03  7.6893e-07  3.0667e-07  6.7454e-08  0:00:07  138
  1863  7.4967e-07  5.5823e-07  3.2045e-07  3.0664e-03  7.4949e-07  3.0549e-07  6.7149e-08  0:00:33  137
  1864  7.2981e-07  5.5581e-07  3.1903e-07  3.0341e-03  7.2961e-07  3.0426e-07  6.6863e-08  0:00:26  136
  1865  7.0956e-07  5.5336e-07  3.1764e-07  3.0018e-03  7.0935e-07  3.0299e-07  6.6593e-08  0:00:21  135
  1866  6.8898e-07  5.5090e-07  3.1629e-07  2.9695e-03  6.8875e-07  3.0169e-07  6.6345e-08  0:00:16  134
  1867  6.6811e-07  5.4843e-07  3.1498e-07  2.9374e-03  6.6787e-07  3.0035e-07  6.6111e-08  0:00:13  133
  1868  6.4701e-07  5.4594e-07  3.1370e-07  2.9054e-03  6.4675e-07  2.9897e-07  6.5887e-08  0:00:10  132
  1869  6.2573e-07  5.4345e-07  3.1245e-07  2.8735e-03  6.2546e-07  2.9754e-07  6.5679e-08  0:00:08  131
  1870  6.0433e-07  5.4095e-07  3.1122e-07  2.8420e-03  6.0403e-07  2.9608e-07  6.5484e-08  0:00:07  130

  iter  continuity  x-velocity  y-velocity  z-velocity      energy           k       omega     time/iter
  1871  5.8286e-07  5.3845e-07  3.1001e-07  2.8109e-03  5.8254e-07  2.9460e-07  6.5314e-08  0:00:31  129
  1872  5.6138e-07  5.3595e-07  3.0882e-07  2.7802e-03  5.6103e-07  2.9308e-07  6.5168e-08  0:00:25  128
  1873  5.3994e-07  5.3345e-07  3.0765e-07  2.7501e-03  5.3956e-07  2.9153e-07  6.5026e-08  0:00:20  127
  1874  5.1860e-07  5.3096e-07  3.0649e-07  2.7206e-03  5.1820e-07  2.8993e-07  6.4893e-08  0:00:15  126
  1875  4.9741e-07  5.2848e-07  3.0535e-07  2.6918e-03  4.9698e-07  2.8830e-07  6.4780e-08  0:00:12  125
  1876  4.7644e-07  5.2602e-07  3.0421e-07  2.6638e-03  4.7598e-07  2.8665e-07  6.4696e-08  0:00:10  124
  1877  4.5574e-07  5.2356e-07  3.0309e-07  2.6367e-03  4.5524e-07  2.8495e-07  6.4647e-08  0:00:08  123
  1878  4.3537e-07  5.2113e-07  3.0197e-07  2.6107e-03  4.3483e-07  2.8321e-07  6.4626e-08  0:00:06  122
  1879  4.1538e-07  5.1872e-07  3.0087e-07  2.5860e-03  4.1480e-07  2.8145e-07  6.4622e-08  0:00:05  121
  1880  3.9584e-07  5.1633e-07  2.9978e-07  2.5626e-03  3.9520e-07  2.7966e-07  6.4621e-08  0:00:04  120
  1881  3.7678e-07  5.1396e-07  2.9869e-07  2.5406e-03  3.7610e-07  2.7784e-07  6.4626e-08  0:00:27  119

  iter  continuity  x-velocity  y-velocity  z-velocity      energy           k       omega     time/iter
  1882  3.5828e-07  5.1163e-07  2.9763e-07  2.5203e-03  3.5754e-07  2.7602e-07  6.4631e-08  0:00:21  118
  1883  3.4037e-07  5.0932e-07  2.9657e-07  2.5017e-03  3.3958e-07  2.7419e-07  6.4633e-08  0:00:17  117
  1884  3.2312e-07  5.0705e-07  2.9554e-07  2.4850e-03  3.2226e-07  2.7232e-07  6.4637e-08  0:00:13  116
  1885  3.0657e-07  5.0482e-07  2.9452e-07  2.4702e-03  3.0564e-07  2.7042e-07  6.4635e-08  0:00:11  115
  1886  2.9077e-07  5.0262e-07  2.9353e-07  2.4575e-03  2.8977e-07  2.6851e-07  6.4624e-08  0:00:08  114
  1887  2.7576e-07  5.0046e-07  2.9256e-07  2.4468e-03  2.7469e-07  2.6657e-07  6.4613e-08  0:00:07  113
  1888  2.6159e-07  4.9834e-07  2.9162e-07  2.4381e-03  2.6044e-07  2.6462e-07  6.4597e-08  0:00:05  112
  1889  2.4829e-07  4.9626e-07  2.9071e-07  2.4315e-03  2.4706e-07  2.6266e-07  6.4580e-08  0:00:04  111
  1890  2.3590e-07  4.9423e-07  2.8983e-07  2.4270e-03  2.3458e-07  2.6070e-07  6.4565e-08  0:00:03  110
  1891  2.2444e-07  4.9224e-07  2.8899e-07  2.4245e-03  2.2303e-07  2.5872e-07  6.4555e-08  0:00:24  109
  1892  2.1392e-07  4.9030e-07  2.8819e-07  2.4238e-03  2.1243e-07  2.5674e-07  6.4548e-08  0:00:19  108

  iter  continuity  x-velocity  y-velocity  z-velocity      energy           k       omega     time/iter
  1893  2.0436e-07  4.8841e-07  2.8743e-07  2.4250e-03  2.0278e-07  2.5475e-07  6.4544e-08  0:00:15  107
  1894  1.9575e-07  4.8657e-07  2.8672e-07  2.4279e-03  1.9409e-07  2.5277e-07  6.4545e-08  0:00:12  106
  1895  1.8809e-07  4.8477e-07  2.8606e-07  2.4324e-03  1.8635e-07  2.5079e-07  6.4549e-08  0:00:10  105
  1896  1.8135e-07  4.8302e-07  2.8545e-07  2.4384e-03  1.7953e-07  2.4881e-07  6.4554e-08  0:00:08  104
  1897  1.7549e-07  4.8132e-07  2.8489e-07  2.4458e-03  1.7360e-07  2.4685e-07  6.4566e-08  0:00:06  103
  1898  1.7048e-07  4.7967e-07  2.8439e-07  2.4544e-03  1.6851e-07  2.4489e-07  6.4575e-08  0:00:05  102
  1899  1.6625e-07  4.7807e-07  2.8394e-07  2.4640e-03  1.6423e-07  2.4293e-07  6.4581e-08  0:00:04  101
  1900  1.6275e-07  4.7651e-07  2.8355e-07  2.4747e-03  1.6069e-07  2.4098e-07  6.4582e-08  0:00:03  100
  1901  1.5992e-07  4.7501e-07  2.8321e-07  2.4862e-03  1.5782e-07  2.3905e-07  6.4589e-08  0:00:22   99
  1902  1.5770e-07  4.7355e-07  2.8293e-07  2.4983e-03  1.5557e-07  2.3713e-07  6.4593e-08  0:00:18   98
  1903  1.5603e-07  4.7213e-07  2.8271e-07  2.5110e-03  1.5388e-07  2.3523e-07  6.4592e-08  0:00:14   97

  iter  continuity  x-velocity  y-velocity  z-velocity      energy           k       omega     time/iter
  1904  1.5485e-07  4.7076e-07  2.8254e-07  2.5242e-03  1.5269e-07  2.3335e-07  6.4597e-08  0:00:11   96
  1905  1.5411e-07  4.6943e-07  2.8243e-07  2.5376e-03  1.5196e-07  2.3150e-07  6.4604e-08  0:00:09   95
  1906  1.5378e-07  4.6815e-07  2.8236e-07  2.5513e-03  1.5164e-07  2.2969e-07  6.4609e-08  0:00:07   94
  1907  1.5383e-07  4.6690e-07  2.8235e-07  2.5650e-03  1.5170e-07  2.2792e-07  6.4610e-08  0:00:05   93
  1908  1.5423e-07  4.6569e-07  2.8238e-07  2.5786e-03  1.5213e-07  2.2618e-07  6.4600e-08  0:00:04   92
  1909  1.5497e-07  4.6452e-07  2.8245e-07  2.5920e-03  1.5290e-07  2.2448e-07  6.4584e-08  0:00:03   91
  1910  1.5606e-07  4.6338e-07  2.8256e-07  2.6052e-03  1.5402e-07  2.2280e-07  6.4557e-08  0:00:03   90
  1911  1.5748e-07  4.6227e-07  2.8271e-07  2.6181e-03  1.5549e-07  2.2115e-07  6.4518e-08  0:00:20   89
  1912  1.5926e-07  4.6119e-07  2.8289e-07  2.6305e-03  1.5732e-07  2.1953e-07  6.4465e-08  0:00:16   88
  1913  1.6141e-07  4.6013e-07  2.8309e-07  2.6424e-03  1.5952e-07  2.1793e-07  6.4402e-08  0:00:12   87
  1914  1.6393e-07  4.5910e-07  2.8332e-07  2.6537e-03  1.6210e-07  2.1636e-07  6.4327e-08  0:00:10   86

  iter  continuity  x-velocity  y-velocity  z-velocity      energy           k       omega     time/iter
  1915  1.6685e-07  4.5809e-07  2.8356e-07  2.6644e-03  1.6508e-07  2.1481e-07  6.4239e-08  0:00:08   85
  1916  1.7018e-07  4.5710e-07  2.8381e-07  2.6743e-03  1.6848e-07  2.1331e-07  6.4138e-08  0:00:06   84
  1917  1.7394e-07  4.5613e-07  2.8407e-07  2.6835e-03  1.7231e-07  2.1185e-07  6.4027e-08  0:00:05   83
  1918  1.7814e-07  4.5517e-07  2.8433e-07  2.6919e-03  1.7657e-07  2.1043e-07  6.3903e-08  0:00:04   82
  1919  1.8277e-07  4.5422e-07  2.8459e-07  2.6994e-03  1.8128e-07  2.0905e-07  6.3770e-08  0:00:03   81
  1920  1.8785e-07  4.5327e-07  2.8484e-07  2.7060e-03  1.8642e-07  2.0774e-07  6.3630e-08  0:00:02   80
  1921  1.9336e-07  4.5234e-07  2.8507e-07  2.7117e-03  1.9200e-07  2.0648e-07  6.3477e-08  0:00:18   79
  1922  1.9929e-07  4.5140e-07  2.8529e-07  2.7164e-03  1.9801e-07  2.0526e-07  6.3315e-08  0:00:14   78
  1923  2.0564e-07  4.5047e-07  2.8549e-07  2.7201e-03  2.0442e-07  2.0408e-07  6.3144e-08  0:00:11   77
  1924  2.1238e-07  4.4953e-07  2.8566e-07  2.7227e-03  2.1123e-07  2.0293e-07  6.2963e-08  0:00:09   76
  1925  2.1948e-07  4.4859e-07  2.8580e-07  2.7243e-03  2.1840e-07  2.0182e-07  6.2771e-08  0:00:07   75

  iter  continuity  x-velocity  y-velocity  z-velocity      energy           k       omega     time/iter
  1926  2.2693e-07  4.4764e-07  2.8590e-07  2.7247e-03  2.2591e-07  2.0074e-07  6.2568e-08  0:00:05   74
  1927  2.3469e-07  4.4668e-07  2.8597e-07  2.7241e-03  2.3373e-07  1.9971e-07  6.2352e-08  0:00:04   73
  1928  2.4274e-07  4.4571e-07  2.8599e-07  2.7224e-03  2.4182e-07  1.9873e-07  6.2126e-08  0:00:03   72
  1929  2.5103e-07  4.4473e-07  2.8597e-07  2.7196e-03  2.5017e-07  1.9778e-07  6.1896e-08  0:00:03   71
  1930  2.5953e-07  4.4373e-07  2.8591e-07  2.7156e-03  2.5872e-07  1.9686e-07  6.1656e-08  0:00:02   70
  1931  2.6822e-07  4.4272e-07  2.8579e-07  2.7105e-03  2.6746e-07  1.9600e-07  6.1407e-08  0:00:15   69
  1932  2.7706e-07  4.4168e-07  2.8563e-07  2.7043e-03  2.7634e-07  1.9517e-07  6.1151e-08  0:00:12   68
  1933  2.8601e-07  4.4063e-07  2.8542e-07  2.6970e-03  2.8532e-07  1.9439e-07  6.0889e-08  0:00:10   67
  1934  2.9503e-07  4.3955e-07  2.8515e-07  2.6887e-03  2.9439e-07  1.9364e-07  6.0618e-08  0:00:08   66
  1935  3.0411e-07  4.3844e-07  2.8482e-07  2.6792e-03  3.0349e-07  1.9292e-07  6.0338e-08  0:00:06   65
  1936  3.1319e-07  4.3731e-07  2.8445e-07  2.6687e-03  3.1261e-07  1.9223e-07  6.0054e-08  0:00:05   64

  iter  continuity  x-velocity  y-velocity  z-velocity      energy           k       omega     time/iter
  1937  3.2226e-07  4.3616e-07  2.8401e-07  2.6571e-03  3.2171e-07  1.9157e-07  5.9765e-08  0:00:04   63
  1938  3.3129e-07  4.3498e-07  2.8352e-07  2.6445e-03  3.3077e-07  1.9095e-07  5.9472e-08  0:00:03   62
  1939  3.4024e-07  4.3376e-07  2.8298e-07  2.6310e-03  3.3974e-07  1.9037e-07  5.9173e-08  0:00:02   61
  1940  3.4908e-07  4.3252e-07  2.8238e-07  2.6165e-03  3.4861e-07  1.8982e-07  5.8870e-08  0:00:14   60
  1941  3.5780e-07  4.3125e-07  2.8173e-07  2.6010e-03  3.5735e-07  1.8932e-07  5.8562e-08  0:00:11   59
  1942  3.6636e-07  4.2995e-07  2.8102e-07  2.5847e-03  3.6593e-07  1.8885e-07  5.8254e-08  0:00:09   58
  1943  3.7475e-07  4.2861e-07  2.8026e-07  2.5675e-03  3.7433e-07  1.8841e-07  5.7942e-08  0:00:07   57
  1944  3.8294e-07  4.2724e-07  2.7945e-07  2.5496e-03  3.8254e-07  1.8801e-07  5.7623e-08  0:00:05   56
  1945  3.9091e-07  4.2584e-07  2.7860e-07  2.5308e-03  3.9052e-07  1.8765e-07  5.7304e-08  0:00:04   55
  1946  3.9863e-07  4.2441e-07  2.7769e-07  2.5112e-03  3.9826e-07  1.8732e-07  5.6990e-08  0:00:03   54
  1947  4.0611e-07  4.2294e-07  2.7674e-07  2.4910e-03  4.0575e-07  1.8703e-07  5.6672e-08  0:00:03   53

  iter  continuity  x-velocity  y-velocity  z-velocity      energy           k       omega     time/iter
  1948  4.1331e-07  4.2144e-07  2.7574e-07  2.4700e-03  4.1296e-07  1.8679e-07  5.6351e-08  0:00:02   52
  1949  4.2022e-07  4.1990e-07  2.7470e-07  2.4484e-03  4.1988e-07  1.8659e-07  5.6030e-08  0:00:02   51
  1950  4.2682e-07  4.1833e-07  2.7363e-07  2.4262e-03  4.2649e-07  1.8642e-07  5.5711e-08  0:00:01   50
  1951  4.3312e-07  4.1673e-07  2.7251e-07  2.4034e-03  4.3279e-07  1.8628e-07  5.5394e-08  0:00:11   49
  1952  4.3908e-07  4.1509e-07  2.7136e-07  2.3800e-03  4.3877e-07  1.8618e-07  5.5077e-08  0:00:08   48
  1953  4.4471e-07  4.1342e-07  2.7018e-07  2.3561e-03  4.4440e-07  1.8610e-07  5.4759e-08  0:00:07   47
  1954  4.5000e-07  4.1172e-07  2.6896e-07  2.3318e-03  4.4969e-07  1.8605e-07  5.4437e-08  0:00:05   46
  1955  4.5493e-07  4.0998e-07  2.6772e-07  2.3070e-03  4.5463e-07  1.8603e-07  5.4116e-08  0:00:04   45
  1956  4.5950e-07  4.0821e-07  2.6645e-07  2.2818e-03  4.5920e-07  1.8604e-07  5.3800e-08  0:00:03   44
  1957  4.6370e-07  4.0641e-07  2.6516e-07  2.2562e-03  4.6341e-07  1.8608e-07  5.3489e-08  0:00:02   43
  1958  4.6754e-07  4.0457e-07  2.6384e-07  2.2303e-03  4.6725e-07  1.8614e-07  5.3178e-08  0:00:02   42

  iter  continuity  x-velocity  y-velocity  z-velocity      energy           k       omega     time/iter
  1959  4.7099e-07  4.0271e-07  2.6251e-07  2.2041e-03  4.7070e-07  1.8622e-07  5.2866e-08  0:00:02   41
  1960  4.7407e-07  4.0081e-07  2.6116e-07  2.1776e-03  4.7378e-07  1.8632e-07  5.2556e-08  0:00:01   40
  1961  4.7676e-07  3.9888e-07  2.5980e-07  2.1509e-03  4.7648e-07  1.8645e-07  5.2248e-08  0:00:09   39
  1962  4.7908e-07  3.9692e-07  2.5843e-07  2.1240e-03  4.7879e-07  1.8658e-07  5.1948e-08  0:00:07   38
  1963  4.8101e-07  3.9492e-07  2.5704e-07  2.0969e-03  4.8072e-07  1.8673e-07  5.1654e-08  0:00:05   37
  1964  4.8255e-07  3.9290e-07  2.5565e-07  2.0697e-03  4.8227e-07  1.8688e-07  5.1369e-08  0:00:04   36
  1965  4.8371e-07  3.9085e-07  2.5426e-07  2.0424e-03  4.8343e-07  1.8704e-07  5.1089e-08  0:00:03   35
  1966  4.8449e-07  3.8877e-07  2.5286e-07  2.0150e-03  4.8420e-07  1.8721e-07  5.0817e-08  0:00:02   34
  1967  4.8489e-07  3.8667e-07  2.5146e-07  1.9875e-03  4.8460e-07  1.8737e-07  5.0548e-08  0:00:02   33
  1968  4.8491e-07  3.8453e-07  2.5006e-07  1.9601e-03  4.8462e-07  1.8755e-07  5.0281e-08  0:00:02   32
  1969  4.8455e-07  3.8237e-07  2.4866e-07  1.9327e-03  4.8426e-07  1.8772e-07  5.0024e-08  0:00:01   31

  iter  continuity  x-velocity  y-velocity  z-velocity      energy           k       omega     time/iter
  1970  4.8382e-07  3.8018e-07  2.4727e-07  1.9053e-03  4.8353e-07  1.8789e-07  4.9769e-08  0:00:01   30
  1971  4.8272e-07  3.7797e-07  2.4589e-07  1.8780e-03  4.8243e-07  1.8806e-07  4.9522e-08  0:00:01   29
  1972  4.8126e-07  3.7573e-07  2.4451e-07  1.8508e-03  4.8096e-07  1.8822e-07  4.9287e-08  0:00:06   28
  1973  4.7944e-07  3.7346e-07  2.4315e-07  1.8238e-03  4.7914e-07  1.8837e-07  4.9060e-08  0:00:05   27
  1974  4.7727e-07  3.7117e-07  2.4179e-07  1.7968e-03  4.7696e-07  1.8849e-07  4.8839e-08  0:00:04   26
  1975  4.7474e-07  3.6886e-07  2.4045e-07  1.7700e-03  4.7443e-07  1.8860e-07  4.8626e-08  0:00:03   25
  1976  4.7188e-07  3.6653e-07  2.3913e-07  1.7434e-03  4.7156e-07  1.8869e-07  4.8413e-08  0:00:02   24
  1977  4.6867e-07  3.6417e-07  2.3782e-07  1.7170e-03  4.6835e-07  1.8876e-07  4.8197e-08  0:00:02   23
  1978  4.6514e-07  3.6180e-07  2.3652e-07  1.6908e-03  4.6482e-07  1.8881e-07  4.7985e-08  0:00:01   22
  1979  4.6129e-07  3.5940e-07  2.3525e-07  1.6649e-03  4.6096e-07  1.8883e-07  4.7781e-08  0:00:01   21
  1980  4.5712e-07  3.5699e-07  2.3399e-07  1.6392e-03  4.5678e-07  1.8883e-07  4.7584e-08  0:00:01   20

  iter  continuity  x-velocity  y-velocity  z-velocity      energy           k       omega     time/iter
  1981  4.5265e-07  3.5456e-07  2.3275e-07  1.6137e-03  4.5230e-07  1.8881e-07  4.7393e-08  0:00:01   19
  1982  4.4787e-07  3.5211e-07  2.3154e-07  1.5886e-03  4.4752e-07  1.8876e-07  4.7203e-08  0:00:04   18
  1983  4.4281e-07  3.4964e-07  2.3034e-07  1.5638e-03  4.4245e-07  1.8869e-07  4.7012e-08  0:00:03   17
  1984  4.3746e-07  3.4716e-07  2.2917e-07  1.5394e-03  4.3710e-07  1.8858e-07  4.6821e-08  0:00:02   16
  1985  4.3184e-07  3.4466e-07  2.2802e-07  1.5153e-03  4.3147e-07  1.8845e-07  4.6627e-08  0:00:02   15
  1986  4.2596e-07  3.4215e-07  2.2690e-07  1.4916e-03  4.2558e-07  1.8830e-07  4.6431e-08  0:00:01   14
  1987  4.1983e-07  3.3962e-07  2.2580e-07  1.4683e-03  4.1944e-07  1.8811e-07  4.6236e-08  0:00:01   13
  1988  4.1345e-07  3.3709e-07  2.2472e-07  1.4454e-03  4.1305e-07  1.8790e-07  4.6044e-08  0:00:01   12
  1989  4.0685e-07  3.3454e-07  2.2367e-07  1.4230e-03  4.0643e-07  1.8766e-07  4.5854e-08  0:00:01   11
  1990  4.0002e-07  3.3198e-07  2.2265e-07  1.4010e-03  3.9959e-07  1.8738e-07  4.5663e-08  0:00:02   10
  1991  3.9298e-07  3.2942e-07  2.2165e-07  1.3795e-03  3.9254e-07  1.8707e-07  4.5470e-08  0:00:02    9

  iter  continuity  x-velocity  y-velocity  z-velocity      energy           k       omega     time/iter
  1992  3.8574e-07  3.2684e-07  2.2067e-07  1.3584e-03  3.8529e-07  1.8672e-07  4.5276e-08  0:00:01    8
  1993  3.7831e-07  3.2426e-07  2.1972e-07  1.3379e-03  3.7785e-07  1.8634e-07  4.5084e-08  0:00:01    7
  1994  3.7071e-07  3.2168e-07  2.1880e-07  1.3180e-03  3.7024e-07  1.8593e-07  4.4895e-08  0:00:01    6
  1995  3.6294e-07  3.1908e-07  2.1790e-07  1.2986e-03  3.6246e-07  1.8548e-07  4.4712e-08  0:00:00    5
  1996  3.5503e-07  3.1649e-07  2.1703e-07  1.2797e-03  3.5453e-07  1.8499e-07  4.4536e-08  0:00:00    4
  1997  3.4698e-07  3.1390e-07  2.1618e-07  1.2615e-03  3.4646e-07  1.8445e-07  4.4360e-08  0:00:00    3
  1998  3.3881e-07  3.1130e-07  2.1535e-07  1.2439e-03  3.3827e-07  1.8387e-07  4.4186e-08  0:00:00    2
  1999  3.3052e-07  3.0870e-07  2.1455e-07  1.2269e-03  3.2997e-07  1.8325e-07  4.4013e-08  0:00:00    1
  2000  3.2215e-07  3.0611e-07  2.1377e-07  1.2105e-03  3.2158e-07  1.8260e-07  4.3845e-08  0:00:00    0

> 
adjoint/                parallel/               server/
define/                 parametric-study/       solve/
display/                plot/                   surface/
exit                    preferences/            turbo-workflow/
file/                   print-license-usage     views/
mesh/                   report/

> /file/write-case-data project1
Fast-loading "C:\PROGRA~1\ANSYSI~1\v231\fluent\fluent23.1.0\\addons\afd\lib\hdfio.bin"
Done.

Writing to Engs-30669:"C:\Users\kebl7595\Desktop\CFD\Runs\Flap\Shallower Aspect Ratio\12 degrees\project1.cas.h5" in NODE0 mode and compression level 1 ...
       19422 cells,     1 zone  ...
       65325 faces,     7 zones ...
       26676 nodes,     1 zone  ...
  Done.
Done.

Writing to Engs-30669:"C:\Users\kebl7595\Desktop\CFD\Runs\Flap\Shallower Aspect Ratio\12 degrees\project1.dat.h5" in NODE0 mode and compression level 1 ...
  Writing results.
Done.

> /file/export/ascii "./surface.dat" wing () no pressure mach-number quit no

Writing "./surface.dat"...

Writing information to ascii file ...
Done.


> /report/forces/wall-forces y -0.20791 -0.97815 0 y "Lift"

> /report/forces/wall-forces y 0.97815 -0.20791 0 y "Drag"

> /exit

Posting ANSYS Product Improvement Program performance data 
Done.
Auto-Transcript Stop Time:  11:42:41, 22 May 2024 GMT Daylight Time 
Total Transcript Time: 5 Minute 8 Second.
