Auto-Transcript Start Time:  11:23:45, 22 May 2024 GMT Daylight Time 
Current Directory: "C:\Users\kebl7595\Desktop\CFD\Runs\Flap\Shallower Aspect Ratio\four to five"

              Welcome to ANSYS Fluent 2023 R1

              Copyright 1987-2023 ANSYS, Inc. All Rights Reserved.
              Unauthorized use, distribution or duplication is prohibited.
              This product is subject to U.S. laws governing export and re-export.
              For full Legal Notice, see documentation.

Build Time: Nov 28 2022 09:52:02 EST  Build Id: 10208  
 
Connected License Server List:	1055@ansyslic.eng.ox.ac.uk

*********************************************
Info: Your license enables 4-way parallel execution.
For faster simulations, please start the application with the appropriate parallel options.
*********************************************


     --------------------------------------------------------------
     This is an academic version of ANSYS FLUENT. Usage of this product
     license is limited to the terms and conditions specified in your ANSYS
     license form, additional terms section.
     --------------------------------------------------------------
Host spawning Node 0 on machine "Engs-30669" (win64).

------------------------------------------------------------------------------------
ID    Hostname    Core  O.S.         PID    Vendor                                 
------------------------------------------------------------------------------------
n0    Engs-30669  1/32  Windows-x64  8460   13th Gen Intel(R) Core(TM) i9-13900    
host  Engs-30669        Windows-x64  39392  13th Gen Intel(R) Core(TM) i9-13900    

MPI Option Selected: intel
------------------------------------------------------------------------------------

Cleanup script file is C:\\Users\\kebl7595\\Desktop\\CFD\\Runs\\Flap\\Shallower Aspect Ratio\\four to five\\cleanup-fluent-Engs-30669-39392.bat

Posting ANSYS Product Improvement Program startup data
Done.

Reading journal file C:/Users/kebl7595/Desktop/CFD/Runs/Flap/Shallower Aspect Ratio/four to five/project1.jou...

> /file/set-batch-options no no no 

> 
define/                 parametric-study/       solve/
display/                plot/                   surface/
exit                    preferences/            switch-to-meshing-mode
file/                   print-license-usage     turbo-workflow/
mesh/                   report/                 views/
parallel/               server/

> /file/import/cgns/mesh  "./project1.cgns"Note: Rank = 0: Process affinity not being set (6).

Importing "./project1.cgns"

Opening library "C:\\PROGRA~1\\ANSYSI~1\\v231\\fluent\\fluent23.1.0\\vki\\win64\\devtools4.4.6.dll"... done.

Read    26064 nodes
   18972 hexahedral cells, zone  1
   13800 quadrilateral wall faces, zone  2.
   49542 quadrilateral interior faces, zone  3.
     474 quadrilateral interface faces, zone  4.

Building...
     mesh
     materials,
     interface,
     domains,
     zones,
	interface-default_subface
	default_interior-1
	default_subface
	default
     parallel,
The automatic selection for flux type has changed to Rhie-Chow: momentum based.

Done.


> 
adjoint/                parallel/               server/
define/                 parametric-study/       solve/
display/                plot/                   surface/
exit                    preferences/            turbo-workflow/
file/                   print-license-usage     views/
mesh/                   report/

> /define/models/solver/density-based-implicit yes

> 
adjoint/                parallel/               server/
define/                 parametric-study/       solve/
display/                plot/                   surface/
exit                    preferences/            turbo-workflow/
file/                   print-license-usage     views/
mesh/                   report/

> /define/models/energy? yes yes invalid command [yes]
yes

> /define/models/viscous/kw-standard? yes

> 
adjoint/                parallel/               server/
define/                 parametric-study/       solve/
display/                plot/                   surface/
exit                    preferences/            turbo-workflow/
file/                   print-license-usage     views/
mesh/                   report/

> /define/materials/change-create air air air is a fluid
yes 
Density
ideal-gas no data required.

no no no no no no

> 
adjoint/                parallel/               server/
define/                 parametric-study/       solve/
display/                plot/                   surface/
exit                    preferences/            turbo-workflow/
file/                   print-license-usage     views/
mesh/                   report/

> /mesh/modify-zones/sep-face-zone-angle 2 90 yes

 6324 faces in contiguous region 0
 339 faces in contiguous region 1
 618 faces in contiguous region 2
 6324 faces in contiguous region 3
 195 faces in contiguous region 4
 Separates zone 2 into 5 zone(s).
Updating new zone information...
   created new zone default_subface:009 from default_subface
   created new zone default_subface:008 from default_subface
   created new zone default_subface:007 from default_subface
   created new zone default_subface:006 from default_subface
done.

> 
adjoint/                parallel/               server/
define/                 parametric-study/       solve/
display/                plot/                   surface/
exit                    preferences/            turbo-workflow/
file/                   print-license-usage     views/
mesh/                   report/

> /define/boundary-conditions/zone-name  6 wing

> /define/boundary-conditions/zone-name  2 sym1

> /define/boundary-conditions/zone-name  8 sym2

> 
adjoint/                parallel/               server/
define/                 parametric-study/       solve/
display/                plot/                   surface/
exit                    preferences/            turbo-workflow/
file/                   print-license-usage     views/
mesh/                   report/

> /define/boundary-conditions/zone-name  7 far1

> /define/boundary-conditions/zone-name 9 far2

> 
adjoint/                parallel/               server/
define/                 parametric-study/       solve/
display/                plot/                   surface/
exit                    preferences/            turbo-workflow/
file/                   print-license-usage     views/
mesh/                   report/

> /define/boundary-conditions/zone-type  7 pressure-far-field

> /define/boundary-conditions/zone-type 9 pressure-far-field

> /define/boundary-conditions/zone-type  2 symmetry

> /define/boundary-conditions/zone-type  8 symmetry

> 
adjoint/                parallel/               server/
define/                 parametric-study/       solve/
display/                plot/                   surface/
exit                    preferences/            turbo-workflow/
file/                   print-license-usage     views/
mesh/                   report/

> /define/boundary-conditions/pressure-far-field (far2 far1)
far1 no 0 no 0.1 no 300 yes no 1 no -0. no 0. no yes 5 0.02

> /define/boundary-conditions/pressure-far-field (far2 far1)
far2 no 0 no 0.1 no 300 yes no 1 no -0. no 0. no yes 5 0.02

> 
adjoint/                parallel/               server/
define/                 parametric-study/       solve/
display/                plot/                   surface/
exit                    preferences/            turbo-workflow/
file/                   print-license-usage     views/
mesh/                   report/

> /solve/initialize/compute-defaults/pressure-far-field (far2 far1)
far1

> /solve/initialize/initialize-flow

> 
adjoint/                parallel/               server/
define/                 parametric-study/       solve/
display/                plot/                   surface/
exit                    preferences/            turbo-workflow/
file/                   print-license-usage     views/
mesh/                   report/

> /solve/monitors/residual/convergence-criteria 1.e-9 1.e-9 1.e-9 1.e-9 1.e-9 1.e-9 1.e-9

> /solve/iterate 2000

  iter  continuity  x-velocity  y-velocity  z-velocity      energy           k       omega     time/iter
     1  1.0000e+00  1.0000e+00  1.0000e+00  1.0000e+00  1.0000e+00  5.8940e-02  5.1156e-02  0:00:00 1999
     2  5.2547e-01  5.4907e-01  4.7804e-01  1.0000e+00  5.2570e-01  5.2835e-02  4.1896e-02  0:33:18 1998
     3  2.8065e-01  3.0096e-01  2.8409e-01  1.0000e+00  2.8068e-01  4.7720e-02  3.7751e-02  0:26:38 1997
     4  1.7139e-01  1.5364e-01  2.0288e-01  8.7018e-01  1.7129e-01  4.3425e-02  3.4560e-02  0:21:17 1996
     5  1.3167e-01  8.9197e-02  1.5433e-01  8.6927e-01  1.3155e-01  3.9851e-02  3.1975e-02  0:17:01 1995
     6  1.1343e-01  6.3700e-02  1.2938e-01  1.0353e+00  1.1333e-01  3.6734e-02  2.9760e-02  0:13:37 1994
     7  1.0053e-01  5.4412e-02  1.1763e-01  1.0737e+00  1.0048e-01  3.4012e-02  2.7787e-02  0:10:53 1993
     8  9.0843e-02  5.5381e-02  1.1080e-01  1.0586e+00  9.0818e-02  3.1644e-02  2.6050e-02  0:08:42 1992
     9  8.1765e-02  4.7674e-02  1.0483e-01  1.0453e+00  8.1747e-02  2.9600e-02  2.4528e-02  0:06:58 1991
    10  7.5287e-02  4.8411e-02  9.6581e-02  1.0238e+00  7.5263e-02  2.7814e-02  2.3202e-02  0:05:34 1990
    11  6.8698e-02  4.7486e-02  8.7829e-02  1.0096e+00  6.8669e-02  2.6249e-02  2.2027e-02  0:11:05 1989

  iter  continuity  x-velocity  y-velocity  z-velocity      energy           k       omega     time/iter
    12  6.1959e-02  4.4767e-02  8.1117e-02  9.8663e-01  6.1929e-02  2.4874e-02  2.0975e-02  0:08:52 1988
    13  5.7629e-02  4.2733e-02  7.3323e-02  9.3731e-01  5.7597e-02  2.3662e-02  2.0048e-02  0:07:05 1987
    14  5.2734e-02  4.0679e-02  6.8048e-02  8.9185e-01  5.2705e-02  2.2609e-02  1.9224e-02  0:05:40 1986
    15  5.0025e-02  3.9091e-02  6.3565e-02  8.5703e-01  4.9998e-02  2.1690e-02  1.8444e-02  0:04:32 1985
    16  4.9044e-02  3.7330e-02  5.9932e-02  8.1313e-01  4.9018e-02  2.0852e-02  1.7741e-02  0:03:37 1984
    17  4.8334e-02  3.5601e-02  5.6877e-02  8.0803e-01  4.8312e-02  2.0078e-02  1.7115e-02  0:02:54 1983
    18  4.7123e-02  3.3512e-02  5.4004e-02  8.3212e-01  4.7105e-02  1.9380e-02  1.6531e-02  0:02:19 1982
    19  4.6144e-02  3.0705e-02  5.0786e-02  8.3895e-01  4.6131e-02  1.8763e-02  1.5970e-02  0:01:51 1981
    20  4.6365e-02  2.7673e-02  4.8759e-02  8.3608e-01  4.6352e-02  1.8167e-02  1.5435e-02  0:01:29 1980
    21  4.8115e-02  2.5067e-02  4.7071e-02  8.0887e-01  4.8102e-02  1.7588e-02  1.4879e-02  0:01:11 1979
    22  4.9055e-02  2.3210e-02  4.6031e-02  7.6865e-01  4.9042e-02  1.7036e-02  1.4438e-02  0:00:57 1978

  iter  continuity  x-velocity  y-velocity  z-velocity      energy           k       omega     time/iter
    23  4.9688e-02  2.2020e-02  4.6301e-02  7.2220e-01  4.9674e-02  1.6595e-02  1.4033e-02  0:00:45 1977
    24  4.9537e-02  2.1632e-02  4.6860e-02  6.7229e-01  4.9523e-02  1.6155e-02  1.3655e-02  0:07:12 1976
    25  4.9962e-02  2.1853e-02  4.7538e-02  6.1780e-01  4.9949e-02  1.5725e-02  1.3268e-02  0:05:45 1975
    26  5.0692e-02  2.2033e-02  4.9167e-02  5.9240e-01  5.0681e-02  1.5320e-02  1.2919e-02  0:04:36 1974
    27  4.9494e-02  2.2205e-02  5.0728e-02  5.8113e-01  4.9481e-02  1.4990e-02  1.2616e-02  0:03:41 1973
    28  4.7332e-02  2.2872e-02  5.0755e-02  5.5422e-01  4.7321e-02  1.4710e-02  1.2361e-02  0:02:56 1972
    29  4.5390e-02  2.3665e-02  5.0321e-02  5.2200e-01  4.5382e-02  1.4391e-02  1.2103e-02  0:02:21 1971
    30  4.2339e-02  2.2496e-02  4.8930e-02  4.8575e-01  4.2331e-02  1.4034e-02  1.1823e-02  0:01:53 1970
    31  3.9206e-02  2.1800e-02  4.7027e-02  4.4263e-01  3.9195e-02  1.3733e-02  1.1527e-02  0:01:30 1969
    32  3.7123e-02  2.1118e-02  4.4068e-02  4.0679e-01  3.7110e-02  1.3406e-02  1.1271e-02  0:01:12 1968
    33  3.5132e-02  2.0163e-02  4.1141e-02  3.7719e-01  3.5117e-02  1.3093e-02  1.0998e-02  0:00:58 1967

  iter  continuity  x-velocity  y-velocity  z-velocity      energy           k       omega     time/iter
    34  3.3498e-02  1.9013e-02  3.8758e-02  3.5087e-01  3.3480e-02  1.2747e-02  1.0723e-02  0:07:19 1966
    35  3.2434e-02  1.7788e-02  3.6196e-02  3.2763e-01  3.2413e-02  1.2419e-02  1.0433e-02  0:05:51 1965
    36  3.2246e-02  1.6721e-02  3.3797e-02  3.1732e-01  3.2222e-02  1.2095e-02  1.0127e-02  0:04:41 1964
    37  3.1928e-02  1.6419e-02  3.1721e-02  3.1843e-01  3.1904e-02  1.1756e-02  9.8452e-03  0:03:45 1963
    38  3.2167e-02  1.6149e-02  3.1029e-02  3.3665e-01  3.2142e-02  1.1432e-02  9.5442e-03  0:03:00 1962
    39  3.2397e-02  1.6108e-02  3.0552e-02  3.6798e-01  3.2373e-02  1.1119e-02  9.3017e-03  0:02:24 1961
    40  3.2169e-02  1.6599e-02  3.0990e-02  4.0305e-01  3.2146e-02  1.0855e-02  9.0446e-03  0:01:55 1960
    41  3.0280e-02  1.7318e-02  3.1000e-02  4.3625e-01  3.0257e-02  1.0568e-02  8.7977e-03  0:01:32 1959
    42  2.8030e-02  1.7775e-02  3.0814e-02  4.6613e-01  2.8007e-02  1.0315e-02  8.5952e-03  0:01:13 1958
    43  2.6169e-02  1.8677e-02  3.0901e-02  5.0192e-01  2.6145e-02  1.0102e-02  8.4477e-03  0:00:59 1957
    44  2.5610e-02  1.9225e-02  3.0881e-02  5.3972e-01  2.5586e-02  9.9151e-03  8.2974e-03  0:00:47 1956

  iter  continuity  x-velocity  y-velocity  z-velocity      energy           k       omega     time/iter
    45  2.6156e-02  1.9304e-02  3.0366e-02  5.7714e-01  2.6132e-02  9.6979e-03  8.1153e-03  0:00:38 1955
    46  2.7335e-02  1.9372e-02  2.9816e-02  6.1223e-01  2.7313e-02  9.5345e-03  7.9227e-03  0:07:01 1954
    47  2.8548e-02  1.9130e-02  2.9247e-02  6.3950e-01  2.8528e-02  9.3688e-03  7.7810e-03  0:05:36 1953
    48  3.0078e-02  1.8524e-02  2.8862e-02  6.5361e-01  3.0059e-02  9.2331e-03  7.6557e-03  0:04:29 1952
    49  3.1310e-02  1.7771e-02  2.8377e-02  6.6647e-01  3.1292e-02  9.1015e-03  7.5168e-03  0:03:35 1951
    50  3.3182e-02  1.7078e-02  2.8263e-02  6.5780e-01  3.3165e-02  8.9352e-03  7.3862e-03  0:02:52 1950
    51  3.4732e-02  1.6566e-02  2.8666e-02  6.4772e-01  3.4717e-02  8.8044e-03  7.2246e-03  0:02:18 1949
    52  3.5972e-02  1.6185e-02  2.9178e-02  6.3224e-01  3.5957e-02  8.7266e-03  7.0796e-03  0:01:50 1948
    53  3.7519e-02  1.6032e-02  3.0356e-02  6.2013e-01  3.7507e-02  8.6572e-03  6.9518e-03  0:01:28 1947
    54  3.7951e-02  1.6010e-02  3.1764e-02  6.1796e-01  3.7941e-02  8.6012e-03  6.8388e-03  0:01:10 1946
    55  3.7819e-02  1.6054e-02  3.3205e-02  6.2078e-01  3.7810e-02  8.5336e-03  6.7157e-03  0:00:56 1945

  iter  continuity  x-velocity  y-velocity  z-velocity      energy           k       omega     time/iter
    56  3.7123e-02  1.5874e-02  3.4362e-02  6.3388e-01  3.7115e-02  8.4344e-03  6.5967e-03  0:00:45 1944
    57  3.6288e-02  1.6184e-02  3.5244e-02  6.3557e-01  3.6281e-02  8.3049e-03  6.4886e-03  0:00:36 1943
    58  3.5111e-02  1.6661e-02  3.5715e-02  6.2728e-01  3.5105e-02  8.1777e-03  6.4088e-03  0:06:57 1942
    59  3.4085e-02  1.6512e-02  3.5795e-02  5.9870e-01  3.4081e-02  8.1376e-03  6.3132e-03  0:05:34 1941
    60  3.1760e-02  1.5831e-02  3.4941e-02  5.7362e-01  3.1754e-02  8.0010e-03  6.2252e-03  0:04:27 1940
    61  3.0366e-02  1.5665e-02  3.3986e-02  5.4630e-01  3.0360e-02  7.8139e-03  6.1203e-03  0:03:33 1939
    62  2.9931e-02  1.5090e-02  3.2784e-02  5.2416e-01  2.9925e-02  7.6115e-03  5.9898e-03  0:02:51 1938
    63  2.9986e-02  1.4087e-02  3.1461e-02  5.0033e-01  2.9978e-02  7.3734e-03  5.8823e-03  0:02:16 1937
    64  3.0255e-02  1.3938e-02  3.0099e-02  4.8697e-01  3.0247e-02  7.2243e-03  5.7369e-03  0:01:49 1936
    65  3.0641e-02  1.3608e-02  2.8856e-02  4.8446e-01  3.0632e-02  7.0499e-03  5.5781e-03  0:01:27 1935
    66  3.1354e-02  1.3601e-02  2.8604e-02  4.8099e-01  3.1345e-02  6.8927e-03  5.5012e-03  0:01:10 1934

  iter  continuity  x-velocity  y-velocity  z-velocity      energy           k       omega     time/iter
    67  3.1229e-02  1.3764e-02  2.8568e-02  4.8245e-01  3.1220e-02  6.6943e-03  5.3699e-03  0:00:56 1933
    68  3.0179e-02  1.4427e-02  2.8635e-02  4.8420e-01  3.0171e-02  6.5173e-03  5.2784e-03  0:00:45 1932
    69  2.8464e-02  1.5038e-02  2.8928e-02  5.0056e-01  2.8455e-02  6.4125e-03  5.2169e-03  0:00:36 1931
    70  2.7185e-02  1.5373e-02  2.9109e-02  5.3097e-01  2.7176e-02  6.2863e-03  5.1361e-03  0:00:28 1930
    71  2.6208e-02  1.5636e-02  2.8755e-02  5.6589e-01  2.6200e-02  6.1532e-03  5.0868e-03  0:06:49 1929
    72  2.5833e-02  1.5983e-02  2.8303e-02  6.0292e-01  2.5828e-02  6.0189e-03  5.0453e-03  0:05:27 1928
    73  2.6680e-02  1.6101e-02  2.7734e-02  6.3691e-01  2.6676e-02  5.8981e-03  5.0084e-03  0:04:21 1927
    74  2.8359e-02  1.5764e-02  2.7067e-02  6.7064e-01  2.8356e-02  5.8138e-03  4.9549e-03  0:03:29 1926
    75  3.0912e-02  1.5409e-02  2.6459e-02  6.8404e-01  3.0911e-02  5.6777e-03  4.9020e-03  0:02:47 1925
    76  3.3300e-02  1.4829e-02  2.5680e-02  6.8468e-01  3.3301e-02  5.6300e-03  4.8627e-03  0:02:14 1924
    77  3.4962e-02  1.4330e-02  2.5628e-02  6.8407e-01  3.4963e-02  5.5430e-03  4.7934e-03  0:01:47 1923

  iter  continuity  x-velocity  y-velocity  z-velocity      energy           k       omega     time/iter
    78  3.5778e-02  1.3903e-02  2.6013e-02  6.8651e-01  3.5778e-02  5.4933e-03  4.7289e-03  0:01:25 1922
    79  3.5612e-02  1.3549e-02  2.6767e-02  7.0904e-01  3.5612e-02  5.4376e-03  4.6845e-03  0:01:08 1921
    80  3.4702e-02  1.3264e-02  2.7415e-02  7.0755e-01  3.4702e-02  5.3783e-03  4.6207e-03  0:00:55 1920
    81  3.3824e-02  1.3207e-02  2.8103e-02  7.0555e-01  3.3822e-02  5.2934e-03  4.5733e-03  0:00:44 1919
    82  3.2861e-02  1.3096e-02  2.8344e-02  7.0314e-01  3.2859e-02  5.1953e-03  4.4870e-03  0:00:35 1918
    83  3.1470e-02  1.3079e-02  2.8073e-02  6.9440e-01  3.1467e-02  5.1370e-03  4.4196e-03  0:06:51 1917
    84  3.0668e-02  1.3109e-02  2.7492e-02  6.8463e-01  3.0665e-02  5.0144e-03  4.3667e-03  0:05:29 1916
    85  2.9421e-02  1.2890e-02  2.6745e-02  6.7605e-01  2.9417e-02  4.9281e-03  4.2764e-03  0:04:23 1915
    86  2.8532e-02  1.2583e-02  2.5539e-02  6.6077e-01  2.8527e-02  4.8152e-03  4.2054e-03  0:03:30 1914
    87  2.8543e-02  1.2565e-02  2.4285e-02  6.4947e-01  2.8538e-02  4.6746e-03  4.0997e-03  0:02:48 1913
    88  2.8400e-02  1.2510e-02  2.3357e-02  6.4116e-01  2.8394e-02  4.5524e-03  3.9973e-03  0:02:14 1912

  iter  continuity  x-velocity  y-velocity  z-velocity      energy           k       omega     time/iter
    89  2.8741e-02  1.2656e-02  2.2845e-02  6.3251e-01  2.8735e-02  4.4331e-03  3.8892e-03  0:01:47 1911
    90  2.8225e-02  1.2889e-02  2.2302e-02  6.1719e-01  2.8220e-02  4.3033e-03  3.7890e-03  0:01:26 1910
    91  2.6803e-02  1.3232e-02  2.1996e-02  6.0418e-01  2.6798e-02  4.2157e-03  3.7270e-03  0:01:09 1909
    92  2.5134e-02  1.3426e-02  2.1930e-02  5.9740e-01  2.5128e-02  4.1244e-03  3.6447e-03  0:00:55 1908
    93  2.3385e-02  1.3429e-02  2.1447e-02  5.8867e-01  2.3378e-02  4.0428e-03  3.5713e-03  0:00:44 1907
    94  2.2140e-02  1.3577e-02  2.0855e-02  5.7931e-01  2.2135e-02  3.9648e-03  3.5095e-03  0:00:35 1906
    95  2.2026e-02  1.3460e-02  2.0295e-02  5.7046e-01  2.2022e-02  3.8721e-03  3.4726e-03  0:00:28 1905
    96  2.3298e-02  1.3233e-02  1.9529e-02  5.6563e-01  2.3293e-02  3.7950e-03  3.4125e-03  0:06:43 1904
    97  2.4701e-02  1.2764e-02  1.8753e-02  5.5166e-01  2.4696e-02  3.7297e-03  3.3704e-03  0:05:22 1903
    98  2.6012e-02  1.2300e-02  1.8264e-02  5.3742e-01  2.6007e-02  3.6798e-03  3.3255e-03  0:04:18 1902
    99  2.7079e-02  1.1834e-02  1.7882e-02  5.2046e-01  2.7073e-02  3.6320e-03  3.2656e-03  0:03:26 1901

  iter  continuity  x-velocity  y-velocity  z-velocity      energy           k       omega     time/iter
   100  2.7403e-02  1.1289e-02  1.7669e-02  5.0376e-01  2.7397e-02  3.5768e-03  3.1960e-03  0:02:45 1900
   101  2.7109e-02  1.0740e-02  1.7904e-02  4.9191e-01  2.7103e-02  3.5367e-03  3.1208e-03  0:02:12 1899
   102  2.6442e-02  1.0345e-02  1.8062e-02  4.6934e-01  2.6436e-02  3.5049e-03  3.0824e-03  0:01:45 1898
   103  2.5432e-02  9.9959e-03  1.8103e-02  4.5472e-01  2.5425e-02  3.4216e-03  3.0536e-03  0:01:24 1897
   104  2.4677e-02  9.6606e-03  1.8092e-02  4.3296e-01  2.4670e-02  3.3728e-03  3.0083e-03  0:01:07 1896
   105  2.4564e-02  9.5392e-03  1.7812e-02  4.1472e-01  2.4557e-02  3.3248e-03  2.9833e-03  0:00:54 1895
   106  2.4174e-02  9.3776e-03  1.7305e-02  3.9315e-01  2.4167e-02  3.2870e-03  2.9372e-03  0:00:43 1894
   107  2.4261e-02  9.1565e-03  1.6548e-02  3.7300e-01  2.4254e-02  3.2200e-03  2.9210e-03  0:00:34 1893
   108  2.4126e-02  8.8997e-03  1.5850e-02  3.5855e-01  2.4120e-02  3.1854e-03  2.8739e-03  0:06:46 1892
   109  2.4209e-02  8.6456e-03  1.5331e-02  3.5194e-01  2.4202e-02  3.1407e-03  2.8521e-03  0:05:25 1891
   110  2.3685e-02  8.4474e-03  1.4723e-02  3.4496e-01  2.3677e-02  3.0907e-03  2.8029e-03  0:04:20 1890

  iter  continuity  x-velocity  y-velocity  z-velocity      energy           k       omega     time/iter
   111  2.3144e-02  8.2916e-03  1.4382e-02  3.3953e-01  2.3136e-02  3.0420e-03  2.7508e-03  0:03:28 1889
   112  2.1631e-02  8.1150e-03  1.4028e-02  3.3753e-01  2.1623e-02  2.9852e-03  2.6995e-03  0:02:46 1888
   113  1.9800e-02  7.9867e-03  1.3654e-02  3.3801e-01  1.9792e-02  2.9495e-03  2.6626e-03  0:02:13 1887
   114  1.8569e-02  7.8096e-03  1.3212e-02  3.3910e-01  1.8561e-02  2.9125e-03  2.6163e-03  0:01:46 1886
   115  1.8389e-02  7.6519e-03  1.2825e-02  3.4939e-01  1.8382e-02  2.8876e-03  2.5975e-03  0:01:25 1885
   116  1.8255e-02  7.4283e-03  1.2401e-02  3.6482e-01  1.8248e-02  2.8516e-03  2.5887e-03  0:01:08 1884
   117  1.8706e-02  7.2304e-03  1.1955e-02  3.7363e-01  1.8699e-02  2.8110e-03  2.5649e-03  0:00:54 1883
   118  1.9467e-02  6.9612e-03  1.1580e-02  3.8151e-01  1.9460e-02  2.7967e-03  2.5728e-03  0:00:43 1882
   119  1.9532e-02  6.7505e-03  1.1298e-02  3.7356e-01  1.9525e-02  2.7542e-03  2.5415e-03  0:00:35 1881
   120  1.8872e-02  6.5598e-03  1.1215e-02  3.8236e-01  1.8864e-02  2.7126e-03  2.4958e-03  0:06:44 1880
   121  1.7464e-02  6.3684e-03  1.1011e-02  3.8666e-01  1.7457e-02  2.6820e-03  2.4614e-03  0:05:23 1879

  iter  continuity  x-velocity  y-velocity  z-velocity      energy           k       omega     time/iter
   122  1.6100e-02  6.1739e-03  1.0795e-02  3.7929e-01  1.6092e-02  2.6623e-03  2.4348e-03  0:04:18 1878
   123  1.5043e-02  6.0668e-03  1.0550e-02  3.7274e-01  1.5035e-02  2.6239e-03  2.4218e-03  0:03:26 1877
   124  1.4358e-02  5.9488e-03  1.0173e-02  3.6364e-01  1.4350e-02  2.5947e-03  2.3802e-03  0:02:45 1876
   125  1.4201e-02  5.9264e-03  9.6903e-03  3.5492e-01  1.4193e-02  2.5643e-03  2.3581e-03  0:02:12 1875
   126  1.4810e-02  5.9551e-03  9.2480e-03  3.4734e-01  1.4803e-02  2.5194e-03  2.3300e-03  0:01:45 1874
   127  1.5705e-02  5.9966e-03  8.9194e-03  3.4163e-01  1.5698e-02  2.4915e-03  2.3152e-03  0:01:24 1873
   128  1.5948e-02  6.0618e-03  8.5709e-03  3.3430e-01  1.5940e-02  2.4598e-03  2.2688e-03  0:01:07 1872
   129  1.6166e-02  6.1590e-03  8.4429e-03  3.2703e-01  1.6159e-02  2.4349e-03  2.2382e-03  0:00:54 1871
   130  1.5938e-02  6.2622e-03  8.2733e-03  3.1824e-01  1.5931e-02  2.4193e-03  2.2014e-03  0:00:43 1870
   131  1.5326e-02  6.3360e-03  8.1287e-03  3.0875e-01  1.5319e-02  2.4067e-03  2.1710e-03  0:00:34 1869
   132  1.4974e-02  6.3405e-03  7.9728e-03  2.9844e-01  1.4967e-02  2.3800e-03  2.1472e-03  0:00:28 1868

  iter  continuity  x-velocity  y-velocity  z-velocity      energy           k       omega     time/iter
   133  1.5077e-02  6.3079e-03  7.7729e-03  2.8813e-01  1.5070e-02  2.3615e-03  2.1231e-03  0:06:35 1867
   134  1.5483e-02  6.2518e-03  7.7018e-03  2.7992e-01  1.5476e-02  2.3459e-03  2.1014e-03  0:05:16 1866
   135  1.5712e-02  6.1659e-03  7.5350e-03  2.7691e-01  1.5705e-02  2.3302e-03  2.0818e-03  0:04:13 1865
   136  1.6103e-02  6.0604e-03  7.4252e-03  2.7231e-01  1.6096e-02  2.3144e-03  2.0535e-03  0:03:22 1864
   137  1.6099e-02  5.8944e-03  7.3843e-03  2.7025e-01  1.6092e-02  2.2871e-03  2.0169e-03  0:02:42 1863
   138  1.6006e-02  5.7667e-03  7.3225e-03  2.7124e-01  1.5998e-02  2.2768e-03  1.9730e-03  0:02:09 1862
   139  1.5613e-02  5.6178e-03  7.2591e-03  2.7294e-01  1.5606e-02  2.2591e-03  1.9407e-03  0:01:43 1861
   140  1.5100e-02  5.4455e-03  7.2070e-03  2.7735e-01  1.5092e-02  2.2320e-03  1.8994e-03  0:01:23 1860
   141  1.4717e-02  5.2592e-03  7.0685e-03  2.8143e-01  1.4710e-02  2.2125e-03  1.8673e-03  0:01:06 1859
   142  1.4174e-02  5.0746e-03  6.9209e-03  2.8808e-01  1.4167e-02  2.1811e-03  1.8316e-03  0:00:53 1858
   143  1.3835e-02  4.9201e-03  6.6641e-03  2.9929e-01  1.3828e-02  2.1565e-03  1.8085e-03  0:00:42 1857

  iter  continuity  x-velocity  y-velocity  z-velocity      energy           k       omega     time/iter
   144  1.3829e-02  4.7747e-03  6.4582e-03  3.1066e-01  1.3821e-02  2.1383e-03  1.7929e-03  0:00:34 1856
   145  1.3707e-02  4.5914e-03  6.2759e-03  3.2046e-01  1.3700e-02  2.1108e-03  1.7619e-03  0:06:38 1855
   146  1.3377e-02  4.4180e-03  6.1074e-03  3.2755e-01  1.3370e-02  2.0795e-03  1.7408e-03  0:05:18 1854
   147  1.3091e-02  4.2534e-03  5.9839e-03  3.3449e-01  1.3083e-02  2.0510e-03  1.7147e-03  0:04:14 1853
   148  1.2677e-02  4.0897e-03  5.8717e-03  3.3935e-01  1.2670e-02  2.0102e-03  1.6904e-03  0:03:23 1852
   149  1.1847e-02  3.8985e-03  5.8094e-03  3.4136e-01  1.1840e-02  1.9829e-03  1.6739e-03  0:02:43 1851
   150  1.1290e-02  3.7138e-03  5.7430e-03  3.4210e-01  1.1283e-02  1.9643e-03  1.6574e-03  0:02:10 1850
   151  1.1052e-02  3.5521e-03  5.7360e-03  3.3925e-01  1.1045e-02  1.9417e-03  1.6268e-03  0:01:44 1849
   152  1.0677e-02  3.3916e-03  5.7016e-03  3.3632e-01  1.0670e-02  1.9202e-03  1.6002e-03  0:01:23 1848
   153  1.0281e-02  3.2630e-03  5.6789e-03  3.3217e-01  1.0274e-02  1.9008e-03  1.5688e-03  0:01:06 1847
   154  1.0012e-02  3.1521e-03  5.7047e-03  3.2533e-01  1.0006e-02  1.8770e-03  1.5156e-03  0:00:53 1846

  iter  continuity  x-velocity  y-velocity  z-velocity      energy           k       omega     time/iter
   155  9.7689e-03  3.0648e-03  5.7215e-03  3.1765e-01  9.7631e-03  1.8695e-03  1.4821e-03  0:00:43 1845
   156  9.5144e-03  3.0116e-03  5.7697e-03  3.0720e-01  9.5087e-03  1.8618e-03  1.4464e-03  0:00:34 1844
   157  9.0721e-03  2.9694e-03  5.8038e-03  2.9634e-01  9.0666e-03  1.8476e-03  1.4127e-03  0:00:27 1843
   158  8.6959e-03  2.9663e-03  5.7950e-03  2.8247e-01  8.6906e-03  1.8376e-03  1.3891e-03  0:06:30 1842
   159  8.4072e-03  2.9799e-03  5.7449e-03  2.6895e-01  8.4021e-03  1.8257e-03  1.3563e-03  0:05:12 1841
   160  8.3348e-03  3.0248e-03  5.6845e-03  2.5569e-01  8.3298e-03  1.8200e-03  1.3386e-03  0:04:09 1840
   161  8.4877e-03  3.0800e-03  5.5951e-03  2.4198e-01  8.4826e-03  1.8090e-03  1.3257e-03  0:03:19 1839
   162  8.9634e-03  3.1614e-03  5.5008e-03  2.3108e-01  8.9580e-03  1.8026e-03  1.3080e-03  0:02:39 1838
   163  9.4401e-03  3.2407e-03  5.4044e-03  2.2186e-01  9.4345e-03  1.7987e-03  1.2933e-03  0:02:07 1837
   164  9.8038e-03  3.3232e-03  5.2823e-03  2.1394e-01  9.7980e-03  1.7932e-03  1.2855e-03  0:01:42 1836
   165  1.0142e-02  3.4056e-03  5.1899e-03  2.0854e-01  1.0136e-02  1.7973e-03  1.2817e-03  0:01:22 1835

  iter  continuity  x-velocity  y-velocity  z-velocity      energy           k       omega     time/iter
   166  1.0327e-02  3.4616e-03  5.0700e-03  2.0373e-01  1.0321e-02  1.7975e-03  1.2801e-03  0:01:05 1834
   167  1.0527e-02  3.5097e-03  4.9627e-03  1.9885e-01  1.0521e-02  1.7930e-03  1.2711e-03  0:00:52 1833
   168  1.0668e-02  3.5405e-03  4.8477e-03  1.9474e-01  1.0662e-02  1.7891e-03  1.2621e-03  0:00:42 1832
   169  1.0919e-02  3.5380e-03  4.7148e-03  1.9224e-01  1.0913e-02  1.7896e-03  1.2584e-03  0:00:33 1831
   170  1.1339e-02  3.5147e-03  4.5966e-03  1.9073e-01  1.1333e-02  1.7870e-03  1.2473e-03  0:06:33 1830
   171  1.1873e-02  3.4763e-03  4.4809e-03  1.9016e-01  1.1867e-02  1.7861e-03  1.2278e-03  0:05:14 1829
   172  1.2433e-02  3.4261e-03  4.3907e-03  1.9094e-01  1.2426e-02  1.7782e-03  1.2193e-03  0:04:11 1828
   173  1.2921e-02  3.3708e-03  4.3240e-03  1.9113e-01  1.2913e-02  1.7770e-03  1.2112e-03  0:03:21 1827
   174  1.3345e-02  3.3206e-03  4.2762e-03  1.9009e-01  1.3337e-02  1.7654e-03  1.2022e-03  0:02:40 1826
   175  1.3666e-02  3.2782e-03  4.2452e-03  1.8864e-01  1.3659e-02  1.7564e-03  1.2000e-03  0:02:08 1825
   176  1.3853e-02  3.2349e-03  4.2076e-03  1.8479e-01  1.3845e-02  1.7556e-03  1.1903e-03  0:01:43 1824

  iter  continuity  x-velocity  y-velocity  z-velocity      energy           k       omega     time/iter
   177  1.3980e-02  3.2021e-03  4.1858e-03  1.7952e-01  1.3972e-02  1.7575e-03  1.1865e-03  0:01:22 1823
   178  1.3961e-02  3.1678e-03  4.1275e-03  1.7368e-01  1.3953e-02  1.7461e-03  1.1664e-03  0:01:06 1822
   179  1.3897e-02  3.1446e-03  4.0440e-03  1.6710e-01  1.3889e-02  1.7361e-03  1.1491e-03  0:00:52 1821
   180  1.3784e-02  3.0849e-03  3.9137e-03  1.6083e-01  1.3777e-02  1.7192e-03  1.1366e-03  0:00:42 1820
   181  1.3696e-02  2.9920e-03  3.8002e-03  1.5527e-01  1.3689e-02  1.7055e-03  1.1143e-03  0:00:34 1819
   182  1.3643e-02  2.8708e-03  3.6592e-03  1.4916e-01  1.3636e-02  1.6930e-03  1.0994e-03  0:06:30 1818
   183  1.3637e-02  2.7467e-03  3.5775e-03  1.4326e-01  1.3629e-02  1.6739e-03  1.0760e-03  0:05:12 1817
   184  1.3691e-02  2.6383e-03  3.5381e-03  1.3944e-01  1.3684e-02  1.6533e-03  1.0574e-03  0:04:10 1816
   185  1.3749e-02  2.5360e-03  3.5517e-03  1.3760e-01  1.3742e-02  1.6297e-03  1.0381e-03  0:03:20 1815
   186  1.3764e-02  2.4535e-03  3.6455e-03  1.3707e-01  1.3757e-02  1.6105e-03  1.0248e-03  0:02:40 1814
   187  1.3676e-02  2.3926e-03  3.7625e-03  1.3831e-01  1.3669e-02  1.5944e-03  1.0150e-03  0:02:08 1813

  iter  continuity  x-velocity  y-velocity  z-velocity      energy           k       omega     time/iter
   188  1.3539e-02  2.3901e-03  3.9099e-03  1.3996e-01  1.3532e-02  1.5793e-03  9.9859e-04  0:01:42 1812
   189  1.3345e-02  2.4184e-03  4.0278e-03  1.4067e-01  1.3338e-02  1.5673e-03  9.9481e-04  0:01:22 1811
   190  1.3153e-02  2.4439e-03  4.1317e-03  1.4118e-01  1.3146e-02  1.5546e-03  9.8635e-04  0:01:05 1810
   191  1.2918e-02  2.4559e-03  4.1948e-03  1.4192e-01  1.2911e-02  1.5400e-03  9.8011e-04  0:00:52 1809
   192  1.2696e-02  2.4676e-03  4.2544e-03  1.4373e-01  1.2690e-02  1.5254e-03  9.7991e-04  0:00:42 1808
   193  1.2419e-02  2.4446e-03  4.3119e-03  1.4640e-01  1.2413e-02  1.5183e-03  9.8053e-04  0:00:33 1807
   194  1.2128e-02  2.4265e-03  4.3458e-03  1.4934e-01  1.2122e-02  1.5085e-03  9.7473e-04  0:06:28 1806
   195  1.1861e-02  2.4115e-03  4.3358e-03  1.5252e-01  1.1855e-02  1.4965e-03  9.6730e-04  0:05:10 1805
   196  1.1724e-02  2.3926e-03  4.3396e-03  1.5756e-01  1.1719e-02  1.4857e-03  9.5828e-04  0:04:08 1804
   197  1.1562e-02  2.3768e-03  4.3727e-03  1.6234e-01  1.1556e-02  1.4760e-03  9.5888e-04  0:03:18 1803
   198  1.1379e-02  2.3669e-03  4.4526e-03  1.6683e-01  1.1374e-02  1.4698e-03  9.5591e-04  0:02:39 1802

  iter  continuity  x-velocity  y-velocity  z-velocity      energy           k       omega     time/iter
   199  1.1165e-02  2.3778e-03  4.5535e-03  1.6983e-01  1.1159e-02  1.4639e-03  9.4777e-04  0:02:07 1801
   200  1.0881e-02  2.4015e-03  4.6780e-03  1.7046e-01  1.0876e-02  1.4571e-03  9.3901e-04  0:01:41 1800
   201  1.0469e-02  2.4406e-03  4.8209e-03  1.6971e-01  1.0464e-02  1.4531e-03  9.3612e-04  0:01:21 1799
   202  9.9548e-03  2.4797e-03  4.9620e-03  1.6821e-01  9.9502e-03  1.4532e-03  9.2898e-04  0:01:05 1798
   203  9.4619e-03  2.5425e-03  5.0455e-03  1.6442e-01  9.4575e-03  1.4540e-03  9.2391e-04  0:00:52 1797
   204  9.0353e-03  2.5843e-03  5.1333e-03  1.6199e-01  9.0312e-03  1.4521e-03  9.2510e-04  0:00:41 1796
   205  8.4781e-03  2.5634e-03  5.1967e-03  1.6300e-01  8.4742e-03  1.4450e-03  9.2517e-04  0:00:33 1795
   206  8.0275e-03  2.5357e-03  5.2183e-03  1.6416e-01  8.0237e-03  1.4361e-03  9.2051e-04  0:06:25 1794
   207  7.7005e-03  2.5072e-03  5.1785e-03  1.6435e-01  7.6968e-03  1.4268e-03  9.1502e-04  0:05:08 1793
   208  7.6152e-03  2.4721e-03  5.1627e-03  1.6854e-01  7.6115e-03  1.4112e-03  9.1378e-04  0:04:06 1792
   209  7.6795e-03  2.4339e-03  5.1558e-03  1.7368e-01  7.6758e-03  1.4003e-03  9.1051e-04  0:03:17 1791

  iter  continuity  x-velocity  y-velocity  z-velocity      energy           k       omega     time/iter
   210  7.7724e-03  2.4054e-03  5.1855e-03  1.8016e-01  7.7685e-03  1.3851e-03  9.0879e-04  0:02:37 1790
   211  7.7861e-03  2.3818e-03  5.1719e-03  1.8587e-01  7.7821e-03  1.3745e-03  9.0675e-04  0:02:06 1789
   212  7.7560e-03  2.4182e-03  5.1735e-03  1.9220e-01  7.7518e-03  1.3642e-03  9.0234e-04  0:01:41 1788
   213  7.7735e-03  2.4971e-03  5.1650e-03  1.9890e-01  7.7693e-03  1.3473e-03  8.9440e-04  0:01:20 1787
   214  7.6533e-03  2.5831e-03  5.1304e-03  2.0547e-01  7.6490e-03  1.3368e-03  8.9102e-04  0:01:04 1786
   215  7.4455e-03  2.6605e-03  5.0488e-03  2.1173e-01  7.4412e-03  1.3258e-03  8.7976e-04  0:00:51 1785
   216  7.1016e-03  2.7038e-03  4.9311e-03  2.1695e-01  7.0973e-03  1.3160e-03  8.8042e-04  0:00:41 1784
   217  6.7844e-03  2.7220e-03  4.7799e-03  2.2137e-01  6.7801e-03  1.3058e-03  8.7739e-04  0:00:33 1783
   218  6.6824e-03  2.7220e-03  4.6260e-03  2.2463e-01  6.6780e-03  1.2983e-03  8.6807e-04  0:06:23 1782
   219  6.7665e-03  2.7070e-03  4.4854e-03  2.2751e-01  6.7621e-03  1.2924e-03  8.6963e-04  0:05:06 1781
   220  6.8649e-03  2.6715e-03  4.3401e-03  2.2915e-01  6.8604e-03  1.2834e-03  8.6678e-04  0:04:05 1780

  iter  continuity  x-velocity  y-velocity  z-velocity      energy           k       omega     time/iter
   221  6.9409e-03  2.6183e-03  4.2110e-03  2.2997e-01  6.9362e-03  1.2728e-03  8.6092e-04  0:03:16 1779
   222  6.9783e-03  2.5683e-03  4.1011e-03  2.2924e-01  6.9736e-03  1.2646e-03  8.5821e-04  0:02:36 1778
   223  6.8584e-03  2.5222e-03  4.0040e-03  2.2788e-01  6.8536e-03  1.2515e-03  8.4430e-04  0:02:05 1777
   224  6.6130e-03  2.4730e-03  3.8972e-03  2.2393e-01  6.6081e-03  1.2443e-03  8.3943e-04  0:01:40 1776
   225  6.4282e-03  2.4266e-03  3.7762e-03  2.1776e-01  6.4232e-03  1.2372e-03  8.3734e-04  0:01:20 1775
   226  6.3954e-03  2.3719e-03  3.6537e-03  2.2088e-01  6.3904e-03  1.2251e-03  8.2918e-04  0:01:04 1774
   227  6.4946e-03  2.3219e-03  3.5255e-03  2.1060e-01  6.4897e-03  1.2106e-03  8.1852e-04  0:00:51 1773
   228  6.6594e-03  2.2737e-03  3.4048e-03  1.9828e-01  6.6545e-03  1.1971e-03  8.1271e-04  0:00:41 1772
   229  6.8661e-03  2.2307e-03  3.2946e-03  1.8590e-01  6.8612e-03  1.1798e-03  8.0678e-04  0:00:33 1771
   230  7.0881e-03  2.2092e-03  3.2113e-03  1.7617e-01  7.0832e-03  1.1633e-03  8.1093e-04  0:06:20 1770
   231  7.2544e-03  2.1992e-03  3.1424e-03  1.6601e-01  7.2494e-03  1.1483e-03  7.9804e-04  0:05:04 1769

  iter  continuity  x-velocity  y-velocity  z-velocity      energy           k       omega     time/iter
   232  7.2847e-03  2.1964e-03  3.0624e-03  1.5623e-01  7.2797e-03  1.1349e-03  7.9569e-04  0:04:03 1768
   233  7.2324e-03  2.1951e-03  2.9640e-03  1.4711e-01  7.2274e-03  1.1203e-03  7.8773e-04  0:03:14 1767
   234  7.1667e-03  2.1986e-03  2.8434e-03  1.3615e-01  7.1617e-03  1.1169e-03  7.7617e-04  0:02:35 1766
   235  7.0273e-03  2.1783e-03  2.7348e-03  1.2535e-01  7.0222e-03  1.1104e-03  7.6912e-04  0:02:04 1765
   236  6.9660e-03  2.1489e-03  2.6005e-03  1.1507e-01  6.9610e-03  1.1070e-03  7.6169e-04  0:01:39 1764
   237  6.9945e-03  2.1107e-03  2.4789e-03  1.0647e-01  6.9895e-03  1.0962e-03  7.5350e-04  0:01:19 1763
   238  7.0371e-03  2.0652e-03  2.3718e-03  9.9312e-02  7.0321e-03  1.0914e-03  7.4724e-04  0:01:03 1762
   239  7.1079e-03  2.0172e-03  2.2628e-03  9.4048e-02  7.1029e-03  1.0861e-03  7.3933e-04  0:00:51 1761
   240  7.1620e-03  1.9721e-03  2.1759e-03  9.0978e-02  7.1570e-03  1.0774e-03  7.3038e-04  0:06:33 1760
   241  7.1586e-03  1.9233e-03  2.1224e-03  9.0061e-02  7.1535e-03  1.0705e-03  7.2587e-04  0:05:14 1759
   242  7.1093e-03  1.8776e-03  2.0544e-03  9.1039e-02  7.1043e-03  1.0662e-03  7.1961e-04  0:04:11 1758

  iter  continuity  x-velocity  y-velocity  z-velocity      energy           k       omega     time/iter
   243  7.0469e-03  1.8340e-03  1.9901e-03  9.1991e-02  7.0419e-03  1.0574e-03  7.1254e-04  0:03:21 1757
   244  7.0149e-03  1.7897e-03  1.9168e-03  9.3695e-02  7.0100e-03  1.0578e-03  7.0643e-04  0:02:40 1756
   245  7.0497e-03  1.7419e-03  1.8375e-03  9.5303e-02  7.0448e-03  1.0409e-03  6.9414e-04  0:02:08 1755
   246  7.1525e-03  1.6919e-03  1.7594e-03  9.7435e-02  7.1477e-03  1.0302e-03  6.7809e-04  0:01:43 1754
   247  7.2840e-03  1.6419e-03  1.6989e-03  1.0042e-01  7.2792e-03  1.0212e-03  6.6626e-04  0:01:22 1753
   248  7.3478e-03  1.5907e-03  1.6705e-03  1.0324e-01  7.3429e-03  1.0085e-03  6.5604e-04  0:01:06 1752
   249  7.3185e-03  1.5371e-03  1.6407e-03  1.0629e-01  7.3136e-03  9.9009e-04  6.3992e-04  0:00:52 1751
   250  7.2692e-03  1.4861e-03  1.6085e-03  1.0891e-01  7.2643e-03  9.7584e-04  6.2588e-04  0:00:42 1750
   251  7.1625e-03  1.4306e-03  1.5811e-03  1.1063e-01  7.1576e-03  9.5809e-04  6.1020e-04  0:00:34 1749
   252  7.0504e-03  1.3720e-03  1.5624e-03  1.1125e-01  7.0455e-03  9.4311e-04  5.9832e-04  0:00:27 1748
   253  6.9813e-03  1.3123e-03  1.5437e-03  1.1132e-01  6.9764e-03  9.3139e-04  5.8652e-04  0:06:11 1747

  iter  continuity  x-velocity  y-velocity  z-velocity      energy           k       omega     time/iter
   254  6.9484e-03  1.2517e-03  1.5243e-03  1.1057e-01  6.9436e-03  9.1796e-04  5.7394e-04  0:04:56 1746
   255  6.9129e-03  1.1867e-03  1.5181e-03  1.0955e-01  6.9081e-03  8.9957e-04  5.6264e-04  0:03:57 1745
   256  6.8430e-03  1.1207e-03  1.5136e-03  1.0790e-01  6.8382e-03  8.8367e-04  5.4943e-04  0:03:10 1744
   257  6.7812e-03  1.0597e-03  1.5136e-03  1.0575e-01  6.7765e-03  8.7007e-04  5.3729e-04  0:02:32 1743
   258  6.6972e-03  1.0011e-03  1.5212e-03  1.0313e-01  6.6925e-03  8.5654e-04  5.2168e-04  0:02:01 1742
   259  6.6070e-03  9.4659e-04  1.5319e-03  1.0003e-01  6.6024e-03  8.4389e-04  5.0818e-04  0:01:37 1741
   260  6.4874e-03  8.9768e-04  1.5333e-03  9.6608e-02  6.4828e-03  8.3018e-04  4.9508e-04  0:01:17 1740
   261  6.3842e-03  8.5476e-04  1.5320e-03  9.2708e-02  6.3797e-03  8.1483e-04  4.7787e-04  0:01:02 1739
   262  6.2986e-03  8.1753e-04  1.5277e-03  8.8515e-02  6.2943e-03  8.0248e-04  4.6932e-04  0:00:50 1738
   263  6.2318e-03  7.8289e-04  1.5236e-03  8.4829e-02  6.2276e-03  7.9237e-04  4.6327e-04  0:00:40 1737
   264  6.1686e-03  7.5540e-04  1.5242e-03  8.1030e-02  6.1644e-03  7.8115e-04  4.5601e-04  0:06:19 1736

  iter  continuity  x-velocity  y-velocity  z-velocity      energy           k       omega     time/iter
   265  6.0690e-03  7.2792e-04  1.5275e-03  7.7209e-02  6.0650e-03  7.7091e-04  4.4708e-04  0:05:03 1735
   266  5.9505e-03  7.0916e-04  1.5342e-03  7.3063e-02  5.9465e-03  7.6204e-04  4.4331e-04  0:04:02 1734
   267  5.8020e-03  6.9249e-04  1.5427e-03  6.9080e-02  5.7982e-03  7.5356e-04  4.4416e-04  0:03:14 1733
   268  5.6554e-03  6.8360e-04  1.5489e-03  6.5126e-02  5.6516e-03  7.4490e-04  4.4124e-04  0:02:35 1732
   269  5.5117e-03  6.8194e-04  1.5555e-03  6.1411e-02  5.5080e-03  7.3802e-04  4.3640e-04  0:02:04 1731
   270  5.3631e-03  6.8545e-04  1.5605e-03  5.8006e-02  5.3596e-03  7.3223e-04  4.3377e-04  0:01:39 1730
   271  5.2016e-03  6.9293e-04  1.5615e-03  5.5136e-02  5.1981e-03  7.2619e-04  4.3238e-04  0:01:19 1729
   272  5.0465e-03  7.0334e-04  1.5628e-03  5.2942e-02  5.0431e-03  7.1997e-04  4.2689e-04  0:01:03 1728
   273  4.8860e-03  7.1852e-04  1.5644e-03  5.1433e-02  4.8828e-03  7.1437e-04  4.2336e-04  0:00:51 1727
   274  4.7337e-03  7.4017e-04  1.5672e-03  5.0635e-02  4.7306e-03  7.1086e-04  4.1998e-04  0:00:40 1726
   275  4.5658e-03  7.6546e-04  1.5673e-03  4.9997e-02  4.5629e-03  7.0633e-04  4.1871e-04  0:00:32 1725

  iter  continuity  x-velocity  y-velocity  z-velocity      energy           k       omega     time/iter
   276  4.3887e-03  7.9382e-04  1.5661e-03  4.9365e-02  4.3860e-03  7.0199e-04  4.1786e-04  0:06:11 1724
   277  4.2001e-03  8.2516e-04  1.5618e-03  4.9017e-02  4.1975e-03  6.9750e-04  4.1682e-04  0:04:56 1723
   278  4.0178e-03  8.5681e-04  1.5564e-03  4.8825e-02  4.0154e-03  6.9241e-04  4.1616e-04  0:03:57 1722
   279  3.8322e-03  8.8717e-04  1.5508e-03  4.8755e-02  3.8300e-03  6.8767e-04  4.1503e-04  0:03:09 1721
   280  3.6528e-03  9.1700e-04  1.5441e-03  4.8829e-02  3.6507e-03  6.8398e-04  4.1433e-04  0:02:31 1720
   281  3.4855e-03  9.4666e-04  1.5351e-03  4.9104e-02  3.4837e-03  6.8075e-04  4.1449e-04  0:02:01 1719
   282  3.3269e-03  9.7501e-04  1.5235e-03  4.9981e-02  3.3252e-03  6.7793e-04  4.1529e-04  0:01:37 1718
   283  3.1742e-03  1.0021e-03  1.5129e-03  5.0931e-02  3.1727e-03  6.7552e-04  4.1602e-04  0:01:17 1717
   284  3.0299e-03  1.0278e-03  1.5028e-03  5.1903e-02  3.0286e-03  6.7379e-04  4.1715e-04  0:01:02 1716
   285  2.9026e-03  1.0523e-03  1.4938e-03  5.2740e-02  2.9015e-03  6.7161e-04  4.1759e-04  0:00:49 1715
   286  2.7917e-03  1.0754e-03  1.4843e-03  5.3614e-02  2.7907e-03  6.6931e-04  4.1811e-04  0:00:40 1714

  iter  continuity  x-velocity  y-velocity  z-velocity      energy           k       omega     time/iter
   287  2.7026e-03  1.0961e-03  1.4728e-03  5.4563e-02  2.7018e-03  6.6624e-04  4.1616e-04  0:00:32 1713
   288  2.6516e-03  1.1143e-03  1.4612e-03  5.5572e-02  2.6510e-03  6.6333e-04  4.1622e-04  0:00:25 1712
   289  2.6438e-03  1.1324e-03  1.4502e-03  5.6689e-02  2.6433e-03  6.6051e-04  4.1435e-04  0:06:02 1711
   290  2.6715e-03  1.1500e-03  1.4391e-03  5.7859e-02  2.6711e-03  6.5771e-04  4.1251e-04  0:04:50 1710
   291  2.7289e-03  1.1671e-03  1.4282e-03  5.8984e-02  2.7286e-03  6.5494e-04  4.1007e-04  0:03:52 1709
   292  2.8064e-03  1.1831e-03  1.4159e-03  6.0070e-02  2.8062e-03  6.5319e-04  4.0923e-04  0:03:05 1708
   293  2.9015e-03  1.1987e-03  1.4012e-03  6.1085e-02  2.9014e-03  6.5085e-04  4.0732e-04  0:02:28 1707
   294  3.0125e-03  1.2134e-03  1.3866e-03  6.2008e-02  3.0124e-03  6.4884e-04  4.0573e-04  0:01:58 1706
   295  3.1360e-03  1.2273e-03  1.3697e-03  6.2806e-02  3.1359e-03  6.4681e-04  4.0655e-04  0:01:35 1705
   296  3.2662e-03  1.2410e-03  1.3497e-03  6.3134e-02  3.2661e-03  6.4411e-04  4.0614e-04  0:01:16 1704
   297  3.4019e-03  1.2544e-03  1.3258e-03  6.3298e-02  3.4018e-03  6.4114e-04  4.0524e-04  0:01:01 1703

  iter  continuity  x-velocity  y-velocity  z-velocity      energy           k       omega     time/iter
   298  3.5442e-03  1.2669e-03  1.2995e-03  6.3504e-02  3.5441e-03  6.3981e-04  4.0530e-04  0:00:48 1702
   299  3.6910e-03  1.2776e-03  1.2707e-03  6.3826e-02  3.6908e-03  6.3655e-04  4.0338e-04  0:00:39 1701
   300  3.8404e-03  1.2849e-03  1.2414e-03  6.4025e-02  3.8402e-03  6.3426e-04  3.9996e-04  0:00:31 1700
   301  3.9886e-03  1.2910e-03  1.2089e-03  6.4145e-02  3.9883e-03  6.3193e-04  3.9884e-04  0:06:05 1699
   302  4.1356e-03  1.2958e-03  1.1746e-03  6.4168e-02  4.1353e-03  6.2936e-04  3.9716e-04  0:04:51 1698
   303  4.2760e-03  1.2994e-03  1.1390e-03  6.4018e-02  4.2756e-03  6.2713e-04  3.9626e-04  0:03:53 1697
   304  4.4099e-03  1.3011e-03  1.1027e-03  6.4018e-02  4.4095e-03  6.2505e-04  3.9459e-04  0:03:06 1696
   305  4.5377e-03  1.3001e-03  1.0653e-03  6.3668e-02  4.5372e-03  6.2291e-04  3.9304e-04  0:02:29 1695
   306  4.6584e-03  1.2973e-03  1.0268e-03  6.2666e-02  4.6579e-03  6.2122e-04  3.8961e-04  0:01:59 1694
   307  4.7709e-03  1.2923e-03  9.8725e-04  6.1452e-02  4.7702e-03  6.1923e-04  3.8481e-04  0:01:35 1693
   308  4.8726e-03  1.2853e-03  9.4684e-04  5.9787e-02  4.8719e-03  6.1703e-04  3.8162e-04  0:01:16 1692

  iter  continuity  x-velocity  y-velocity  z-velocity      energy           k       omega     time/iter
   309  4.9620e-03  1.2763e-03  9.0672e-04  5.7915e-02  4.9613e-03  6.1592e-04  3.8029e-04  0:01:01 1691
   310  5.0367e-03  1.2654e-03  8.6756e-04  5.5825e-02  5.0359e-03  6.1483e-04  3.7565e-04  0:00:49 1690
   311  5.0964e-03  1.2532e-03  8.3007e-04  5.3846e-02  5.0956e-03  6.1284e-04  3.7388e-04  0:00:39 1689
   312  5.1395e-03  1.2399e-03  7.9550e-04  5.2178e-02  5.1386e-03  6.1024e-04  3.7004e-04  0:00:31 1688
   313  5.1673e-03  1.2255e-03  7.6497e-04  5.0597e-02  5.1664e-03  6.0664e-04  3.6634e-04  0:06:02 1687
   314  5.1825e-03  1.2102e-03  7.3865e-04  4.9002e-02  5.1816e-03  6.0332e-04  3.6281e-04  0:04:50 1686
   315  5.1849e-03  1.1936e-03  7.1643e-04  4.7514e-02  5.1840e-03  6.0049e-04  3.6060e-04  0:03:52 1685
   316  5.1735e-03  1.1753e-03  6.9633e-04  4.6270e-02  5.1726e-03  5.9761e-04  3.5970e-04  0:03:05 1684
   317  5.1503e-03  1.1547e-03  6.8195e-04  4.5372e-02  5.1493e-03  5.9543e-04  3.5846e-04  0:02:28 1683
   318  5.1186e-03  1.1314e-03  6.7143e-04  4.5069e-02  5.1176e-03  5.9347e-04  3.5296e-04  0:01:58 1682
   319  5.0801e-03  1.1053e-03  6.6774e-04  4.5254e-02  5.0791e-03  5.9059e-04  3.4911e-04  0:01:35 1681

  iter  continuity  x-velocity  y-velocity  z-velocity      energy           k       omega     time/iter
   320  5.0320e-03  1.0768e-03  6.6979e-04  4.6029e-02  5.0311e-03  5.8766e-04  3.4753e-04  0:01:16 1680
   321  4.9746e-03  1.0456e-03  6.7823e-04  4.7103e-02  4.9736e-03  5.8489e-04  3.4588e-04  0:01:00 1679
   322  4.9104e-03  1.0114e-03  6.9515e-04  4.8759e-02  4.9094e-03  5.8163e-04  3.4318e-04  0:00:48 1678
   323  4.8371e-03  9.7550e-04  7.2086e-04  5.1088e-02  4.8361e-03  5.7820e-04  3.4188e-04  0:00:39 1677
   324  4.7516e-03  9.3840e-04  7.5248e-04  5.3372e-02  4.7506e-03  5.7551e-04  3.4052e-04  0:00:31 1676
   325  4.6539e-03  9.0050e-04  7.8943e-04  5.5565e-02  4.6528e-03  5.7151e-04  3.3785e-04  0:00:25 1675
   326  4.5436e-03  8.6249e-04  8.3010e-04  5.7638e-02  4.5426e-03  5.6820e-04  3.3615e-04  0:05:55 1674
   327  4.4209e-03  8.2485e-04  8.7205e-04  5.9395e-02  4.4199e-03  5.6576e-04  3.3146e-04  0:04:43 1673
   328  4.2869e-03  7.8766e-04  9.1428e-04  6.0905e-02  4.2859e-03  5.6312e-04  3.2713e-04  0:03:47 1672
   329  4.1423e-03  7.5143e-04  9.5573e-04  6.2241e-02  4.1412e-03  5.6057e-04  3.2337e-04  0:03:01 1671
   330  3.9887e-03  7.1648e-04  9.9578e-04  6.3233e-02  3.9877e-03  5.5879e-04  3.1983e-04  0:02:25 1670

  iter  continuity  x-velocity  y-velocity  z-velocity      energy           k       omega     time/iter
   331  3.8293e-03  6.8282e-04  1.0349e-03  6.4103e-02  3.8283e-03  5.5596e-04  3.1850e-04  0:01:56 1669
   332  3.6633e-03  6.5244e-04  1.0726e-03  6.4927e-02  3.6622e-03  5.5303e-04  3.1568e-04  0:01:33 1668
   333  3.4906e-03  6.2471e-04  1.1092e-03  6.5611e-02  3.4895e-03  5.4998e-04  3.1436e-04  0:01:14 1667
   334  3.3130e-03  6.0000e-04  1.1446e-03  6.6151e-02  3.3120e-03  5.4638e-04  3.1488e-04  0:00:59 1666
   335  3.1310e-03  5.7892e-04  1.1787e-03  6.6416e-02  3.1300e-03  5.4292e-04  3.1541e-04  0:00:47 1665
   336  2.9445e-03  5.6171e-04  1.2111e-03  6.6381e-02  2.9434e-03  5.3955e-04  3.1629e-04  0:00:38 1664
   337  2.7560e-03  5.4880e-04  1.2409e-03  6.6093e-02  2.7550e-03  5.3569e-04  3.1578e-04  0:00:30 1663
   338  2.5682e-03  5.4037e-04  1.2677e-03  6.5522e-02  2.5672e-03  5.3211e-04  3.1589e-04  0:05:57 1662
   339  2.3829e-03  5.3570e-04  1.2929e-03  6.4762e-02  2.3819e-03  5.2792e-04  3.1670e-04  0:04:45 1661
   340  2.2061e-03  5.3572e-04  1.3151e-03  6.4001e-02  2.2051e-03  5.2389e-04  3.1705e-04  0:03:48 1660
   341  2.0446e-03  5.4027e-04  1.3343e-03  6.3274e-02  2.0436e-03  5.1976e-04  3.1774e-04  0:03:02 1659

  iter  continuity  x-velocity  y-velocity  z-velocity      energy           k       omega     time/iter
   342  1.9015e-03  5.4992e-04  1.3509e-03  6.2577e-02  1.9006e-03  5.1610e-04  3.1557e-04  0:02:26 1658
   343  1.7837e-03  5.6371e-04  1.3623e-03  6.1970e-02  1.7828e-03  5.1212e-04  3.1504e-04  0:01:56 1657
   344  1.6913e-03  5.8210e-04  1.3692e-03  6.1266e-02  1.6904e-03  5.0841e-04  3.1311e-04  0:01:33 1656
   345  1.6270e-03  6.0467e-04  1.3726e-03  6.0459e-02  1.6262e-03  5.0540e-04  3.1053e-04  0:01:14 1655
   346  1.5900e-03  6.3070e-04  1.3718e-03  5.9660e-02  1.5893e-03  5.0271e-04  3.0876e-04  0:01:00 1654
   347  1.5790e-03  6.5921e-04  1.3659e-03  5.8972e-02  1.5784e-03  5.0040e-04  3.0825e-04  0:00:48 1653
   348  1.5932e-03  6.8898e-04  1.3542e-03  5.8342e-02  1.5927e-03  4.9849e-04  3.0794e-04  0:00:38 1652
   349  1.6290e-03  7.1888e-04  1.3368e-03  5.7714e-02  1.6286e-03  4.9674e-04  3.0960e-04  0:06:01 1651
   350  1.6872e-03  7.4810e-04  1.3145e-03  5.7179e-02  1.6869e-03  4.9556e-04  3.0876e-04  0:04:48 1650
   351  1.7693e-03  7.7573e-04  1.2875e-03  5.6781e-02  1.7691e-03  4.9541e-04  3.0835e-04  0:03:51 1649
   352  1.8675e-03  8.0127e-04  1.2564e-03  5.6627e-02  1.8674e-03  4.9587e-04  3.0832e-04  0:03:04 1648

  iter  continuity  x-velocity  y-velocity  z-velocity      energy           k       omega     time/iter
   353  1.9802e-03  8.2455e-04  1.2218e-03  5.6725e-02  1.9801e-03  4.9686e-04  3.0771e-04  0:02:27 1647
   354  2.1030e-03  8.4538e-04  1.1844e-03  5.7018e-02  2.1030e-03  4.9760e-04  3.0828e-04  0:01:58 1646
   355  2.2330e-03  8.6367e-04  1.1448e-03  5.7271e-02  2.2330e-03  4.9839e-04  3.0770e-04  0:01:34 1645
   356  2.3641e-03  8.7919e-04  1.1038e-03  5.7608e-02  2.3641e-03  4.9921e-04  3.0530e-04  0:01:15 1644
   357  2.4941e-03  8.9163e-04  1.0620e-03  5.7768e-02  2.4942e-03  5.0000e-04  3.0319e-04  0:01:00 1643
   358  2.6241e-03  9.0086e-04  1.0198e-03  5.7794e-02  2.6241e-03  5.0005e-04  3.0223e-04  0:00:48 1642
   359  2.7531e-03  9.0727e-04  9.7764e-04  5.7586e-02  2.7531e-03  5.0118e-04  2.9964e-04  0:00:38 1641
   360  2.8829e-03  9.1065e-04  9.3493e-04  5.7120e-02  2.8829e-03  5.0317e-04  2.9751e-04  0:00:31 1640
   361  3.0127e-03  9.1148e-04  8.9177e-04  5.6405e-02  3.0128e-03  5.0490e-04  2.9544e-04  0:00:25 1639
   362  3.1418e-03  9.1022e-04  8.4859e-04  5.5609e-02  3.1418e-03  5.0611e-04  2.9346e-04  0:05:47 1638
   363  3.2692e-03  9.0716e-04  8.0652e-04  5.4752e-02  3.2692e-03  5.0685e-04  2.9193e-04  0:04:38 1637

  iter  continuity  x-velocity  y-velocity  z-velocity      energy           k       omega     time/iter
   364  3.3907e-03  9.0253e-04  7.6525e-04  5.3872e-02  3.3907e-03  5.0772e-04  2.9039e-04  0:03:42 1636
   365  3.5044e-03  8.9649e-04  7.2482e-04  5.3853e-02  3.5043e-03  5.0839e-04  2.8887e-04  0:02:57 1635
   366  3.6085e-03  8.8910e-04  6.8470e-04  5.4187e-02  3.6084e-03  5.0879e-04  2.8692e-04  0:02:22 1634
   367  3.7010e-03  8.8018e-04  6.4452e-04  5.4989e-02  3.7009e-03  5.0912e-04  2.8489e-04  0:01:53 1633
   368  3.7833e-03  8.6947e-04  6.0443e-04  5.6462e-02  3.7832e-03  5.0876e-04  2.8187e-04  0:01:31 1632
   369  3.8565e-03  8.5691e-04  5.6578e-04  5.8633e-02  3.8564e-03  5.0856e-04  2.7891e-04  0:01:13 1631
   370  3.9214e-03  8.4256e-04  5.2960e-04  6.1838e-02  3.9213e-03  5.0855e-04  2.7613e-04  0:00:58 1630
   371  3.9783e-03  8.2654e-04  4.9679e-04  6.6243e-02  3.9781e-03  5.0840e-04  2.7357e-04  0:00:46 1629
   372  4.0270e-03  8.0889e-04  4.6832e-04  7.1929e-02  4.0267e-03  5.0768e-04  2.7209e-04  0:00:37 1628
   373  4.0662e-03  7.8974e-04  4.4551e-04  7.8208e-02  4.0660e-03  5.0672e-04  2.7042e-04  0:00:30 1627
   374  4.0975e-03  7.6927e-04  4.3024e-04  8.4005e-02  4.0973e-03  5.0576e-04  2.6782e-04  0:05:49 1626

  iter  continuity  x-velocity  y-velocity  z-velocity      energy           k       omega     time/iter
   375  4.1232e-03  7.4744e-04  4.2239e-04  8.9324e-02  4.1229e-03  5.0430e-04  2.6567e-04  0:04:39 1625
   376  4.1422e-03  7.2453e-04  4.2224e-04  9.4203e-02  4.1419e-03  5.0318e-04  2.6345e-04  0:03:43 1624
   377  4.1533e-03  7.0086e-04  4.2864e-04  9.7754e-02  4.1529e-03  5.0232e-04  2.6148e-04  0:02:58 1623
   378  4.1555e-03  6.7663e-04  4.4082e-04  9.9876e-02  4.1551e-03  5.0078e-04  2.5925e-04  0:02:23 1622
   379  4.1517e-03  6.5193e-04  4.5753e-04  1.0060e-01  4.1513e-03  4.9877e-04  2.5767e-04  0:01:54 1621
   380  4.1412e-03  6.2691e-04  4.7801e-04  1.0009e-01  4.1408e-03  4.9689e-04  2.5590e-04  0:01:31 1620
   381  4.1238e-03  6.0167e-04  5.0132e-04  9.9144e-02  4.1234e-03  4.9503e-04  2.5335e-04  0:01:13 1619
   382  4.0978e-03  5.7623e-04  5.2651e-04  9.8404e-02  4.0974e-03  4.9314e-04  2.5138e-04  0:00:58 1618
   383  4.0623e-03  5.5075e-04  5.5335e-04  9.8054e-02  4.0619e-03  4.9126e-04  2.5089e-04  0:00:47 1617
   384  4.0167e-03  5.2528e-04  5.8140e-04  9.7403e-02  4.0163e-03  4.8938e-04  2.5087e-04  0:00:37 1616
   385  3.9619e-03  4.9980e-04  6.0944e-04  9.6976e-02  3.9614e-03  4.8807e-04  2.4972e-04  0:00:30 1615

  iter  continuity  x-velocity  y-velocity  z-velocity      energy           k       omega     time/iter
   386  3.8993e-03  4.7445e-04  6.3727e-04  9.7100e-02  3.8989e-03  4.8664e-04  2.4716e-04  0:05:47 1614
   387  3.8283e-03  4.4955e-04  6.6479e-04  9.7003e-02  3.8278e-03  4.8515e-04  2.4531e-04  0:04:37 1613
   388  3.7501e-03  4.2539e-04  6.9189e-04  9.3958e-02  3.7496e-03  4.8377e-04  2.4423e-04  0:03:42 1612
   389  3.6655e-03  4.0231e-04  7.1799e-04  9.1674e-02  3.6650e-03  4.8235e-04  2.4521e-04  0:02:57 1611
   390  3.5727e-03  3.8032e-04  7.4275e-04  8.9868e-02  3.5722e-03  4.8093e-04  2.4453e-04  0:02:22 1610
   391  3.4758e-03  3.6040e-04  7.6649e-04  8.7760e-02  3.4753e-03  4.7898e-04  2.4308e-04  0:01:53 1609
   392  3.3750e-03  3.4295e-04  7.8867e-04  8.5410e-02  3.3745e-03  4.7636e-04  2.4236e-04  0:01:31 1608
   393  3.2701e-03  3.2846e-04  8.0917e-04  8.3087e-02  3.2696e-03  4.7336e-04  2.4160e-04  0:01:12 1607
   394  3.1616e-03  3.1735e-04  8.2794e-04  8.1425e-02  3.1611e-03  4.7008e-04  2.4176e-04  0:00:58 1606
   395  3.0494e-03  3.0980e-04  8.4481e-04  8.0097e-02  3.0489e-03  4.6653e-04  2.4185e-04  0:00:46 1605
   396  2.9342e-03  3.0586e-04  8.5981e-04  7.8299e-02  2.9336e-03  4.6319e-04  2.4013e-04  0:00:37 1604

  iter  continuity  x-velocity  y-velocity  z-velocity      energy           k       omega     time/iter
   397  2.8151e-03  3.0588e-04  8.7296e-04  7.6197e-02  2.8146e-03  4.5987e-04  2.4005e-04  0:00:30 1603
   398  2.6925e-03  3.0963e-04  8.8427e-04  7.4449e-02  2.6919e-03  4.5582e-04  2.3977e-04  0:05:44 1602
   399  2.5658e-03  3.1642e-04  8.9367e-04  7.2482e-02  2.5653e-03  4.5178e-04  2.3826e-04  0:04:35 1601
   400  2.4353e-03  3.2517e-04  9.0128e-04  7.0377e-02  2.4348e-03  4.4807e-04  2.3770e-04  0:03:40 1600
   401  2.3028e-03  3.3602e-04  9.0733e-04  6.8479e-02  2.3023e-03  4.4461e-04  2.3736e-04  0:02:56 1599
   402  2.1691e-03  3.4866e-04  9.1188e-04  6.7662e-02  2.1686e-03  4.4153e-04  2.3637e-04  0:02:21 1598
   403  2.0350e-03  3.6287e-04  9.1494e-04  6.7692e-02  2.0345e-03  4.3862e-04  2.3560e-04  0:01:52 1597
   404  1.9020e-03  3.7822e-04  9.1650e-04  6.8092e-02  1.9014e-03  4.3569e-04  2.3472e-04  0:01:30 1596
   405  1.7716e-03  3.9387e-04  9.1656e-04  6.8785e-02  1.7711e-03  4.3293e-04  2.3357e-04  0:01:12 1595
   406  1.6459e-03  4.0966e-04  9.1503e-04  7.0095e-02  1.6454e-03  4.3018e-04  2.3147e-04  0:00:57 1594
   407  1.5272e-03  4.2548e-04  9.1196e-04  7.1779e-02  1.5266e-03  4.2731e-04  2.3063e-04  0:00:46 1593

  iter  continuity  x-velocity  y-velocity  z-velocity      energy           k       omega     time/iter
   408  1.4196e-03  4.4107e-04  9.0725e-04  7.3543e-02  1.4190e-03  4.2425e-04  2.2913e-04  0:00:37 1592
   409  1.3270e-03  4.5672e-04  9.0116e-04  7.5358e-02  1.3264e-03  4.2130e-04  2.2733e-04  0:00:29 1591
   410  1.2515e-03  4.7213e-04  8.9337e-04  7.7114e-02  1.2509e-03  4.1885e-04  2.2730e-04  0:00:23 1590
   411  1.1952e-03  4.8751e-04  8.8368e-04  7.9125e-02  1.1946e-03  4.1606e-04  2.2646e-04  0:05:37 1589
   412  1.1600e-03  5.0269e-04  8.7217e-04  8.1400e-02  1.1594e-03  4.1316e-04  2.2558e-04  0:04:29 1588
   413  1.1467e-03  5.1730e-04  8.5885e-04  8.4011e-02  1.1460e-03  4.1080e-04  2.2483e-04  0:03:35 1587
   414  1.1545e-03  5.3119e-04  8.4364e-04  8.6460e-02  1.1539e-03  4.0894e-04  2.2350e-04  0:02:52 1586
   415  1.1821e-03  5.4408e-04  8.2646e-04  8.8838e-02  1.1814e-03  4.0736e-04  2.2408e-04  0:02:18 1585
   416  1.2257e-03  5.5568e-04  8.0703e-04  9.1184e-02  1.2251e-03  4.0588e-04  2.2266e-04  0:01:50 1584
   417  1.2824e-03  5.6599e-04  7.8588e-04  9.3305e-02  1.2818e-03  4.0460e-04  2.2165e-04  0:01:28 1583
   418  1.3470e-03  5.7521e-04  7.6313e-04  9.5984e-02  1.3463e-03  4.0344e-04  2.2045e-04  0:01:10 1582

  iter  continuity  x-velocity  y-velocity  z-velocity      energy           k       omega     time/iter
   419  1.4155e-03  5.8317e-04  7.3889e-04  9.8610e-02  1.4149e-03  4.0257e-04  2.1937e-04  0:00:56 1581
   420  1.4877e-03  5.8973e-04  7.1344e-04  1.0112e-01  1.4871e-03  4.0126e-04  2.1690e-04  0:00:45 1580
   421  1.5623e-03  5.9490e-04  6.8703e-04  1.0203e-01  1.5617e-03  3.9975e-04  2.1581e-04  0:00:36 1579
   422  1.6377e-03  5.9863e-04  6.5984e-04  1.0280e-01  1.6370e-03  3.9843e-04  2.1432e-04  0:00:29 1578
   423  1.7128e-03  6.0106e-04  6.3200e-04  1.0323e-01  1.7121e-03  3.9711e-04  2.1274e-04  0:05:38 1577
   424  1.7866e-03  6.0225e-04  6.0368e-04  1.0337e-01  1.7859e-03  3.9541e-04  2.1025e-04  0:04:31 1576
   425  1.8577e-03  6.0237e-04  5.7487e-04  1.0256e-01  1.8570e-03  3.9367e-04  2.0820e-04  0:03:36 1575
   426  1.9263e-03  6.0131e-04  5.4611e-04  1.0203e-01  1.9256e-03  3.9190e-04  2.0617e-04  0:02:53 1574
   427  1.9930e-03  5.9905e-04  5.1755e-04  1.0116e-01  1.9923e-03  3.9014e-04  2.0433e-04  0:02:18 1573
   428  2.0561e-03  5.9595e-04  4.8941e-04  9.9726e-02  2.0555e-03  3.8814e-04  2.0328e-04  0:01:51 1572
   429  2.1130e-03  5.9199e-04  4.6140e-04  9.7661e-02  2.1123e-03  3.8633e-04  2.0235e-04  0:01:28 1571

  iter  continuity  x-velocity  y-velocity  z-velocity      energy           k       omega     time/iter
   430  2.1633e-03  5.8725e-04  4.3399e-04  9.5239e-02  2.1626e-03  3.8445e-04  2.0137e-04  0:01:11 1570
   431  2.2073e-03  5.8170e-04  4.0732e-04  9.2649e-02  2.2066e-03  3.8266e-04  1.9998e-04  0:00:56 1569
   432  2.2446e-03  5.7532e-04  3.8162e-04  9.0059e-02  2.2439e-03  3.8076e-04  1.9861e-04  0:00:45 1568
   433  2.2753e-03  5.6815e-04  3.5713e-04  8.7780e-02  2.2746e-03  3.7872e-04  1.9738e-04  0:00:36 1567
   434  2.2995e-03  5.6014e-04  3.3400e-04  8.5939e-02  2.2988e-03  3.7652e-04  1.9594e-04  0:00:29 1566
   435  2.3179e-03  5.5131e-04  3.1250e-04  8.4531e-02  2.3172e-03  3.7426e-04  1.9458e-04  0:00:23 1565
   436  2.3308e-03  5.4163e-04  2.9286e-04  8.3506e-02  2.3301e-03  3.7212e-04  1.9315e-04  0:05:31 1564
   437  2.3387e-03  5.3103e-04  2.7530e-04  8.2725e-02  2.3380e-03  3.6990e-04  1.9175e-04  0:04:25 1563
   438  2.3421e-03  5.1951e-04  2.6055e-04  8.2209e-02  2.3414e-03  3.6756e-04  1.9036e-04  0:03:32 1562
   439  2.3415e-03  5.0708e-04  2.4934e-04  8.1948e-02  2.3408e-03  3.6524e-04  1.8891e-04  0:02:49 1561
   440  2.3361e-03  4.9379e-04  2.4182e-04  8.1440e-02  2.3354e-03  3.6308e-04  1.8746e-04  0:02:15 1560

  iter  continuity  x-velocity  y-velocity  z-velocity      energy           k       omega     time/iter
   441  2.3255e-03  4.7973e-04  2.3833e-04  8.0388e-02  2.3248e-03  3.6086e-04  1.8652e-04  0:01:48 1559
   442  2.3103e-03  4.6499e-04  2.3895e-04  7.9246e-02  2.3096e-03  3.5865e-04  1.8565e-04  0:01:27 1558
   443  2.2902e-03  4.4969e-04  2.4328e-04  7.8136e-02  2.2895e-03  3.5661e-04  1.8463e-04  0:01:09 1557
   444  2.2650e-03  4.3396e-04  2.5083e-04  7.6927e-02  2.2643e-03  3.5454e-04  1.8314e-04  0:00:55 1556
   445  2.2346e-03  4.1783e-04  2.6099e-04  7.5574e-02  2.2339e-03  3.5216e-04  1.8131e-04  0:00:44 1555
   446  2.1993e-03  4.0138e-04  2.7306e-04  7.4051e-02  2.1986e-03  3.4975e-04  1.7981e-04  0:05:46 1554
   447  2.1591e-03  3.8472e-04  2.8642e-04  7.2461e-02  2.1585e-03  3.4707e-04  1.7894e-04  0:04:37 1553
   448  2.1145e-03  3.6802e-04  3.0064e-04  7.0675e-02  2.1138e-03  3.4431e-04  1.7919e-04  0:03:41 1552
   449  2.0656e-03  3.5143e-04  3.1531e-04  6.8729e-02  2.0649e-03  3.4154e-04  1.7921e-04  0:02:57 1551
   450  2.0124e-03  3.3508e-04  3.3020e-04  6.6748e-02  2.0118e-03  3.3862e-04  1.7977e-04  0:02:21 1550
   451  1.9552e-03  3.1908e-04  3.4512e-04  6.4241e-02  1.9545e-03  3.3567e-04  1.8018e-04  0:01:53 1549

  iter  continuity  x-velocity  y-velocity  z-velocity      energy           k       omega     time/iter
   452  1.8941e-03  3.0357e-04  3.5997e-04  6.1867e-02  1.8935e-03  3.3300e-04  1.8057e-04  0:01:30 1548
   453  1.8295e-03  2.8864e-04  3.7466e-04  5.9619e-02  1.8289e-03  3.3055e-04  1.8026e-04  0:01:12 1547
   454  1.7616e-03  2.7441e-04  3.8908e-04  5.7568e-02  1.7611e-03  3.2818e-04  1.7848e-04  0:00:58 1546
   455  1.6909e-03  2.6112e-04  4.0274e-04  5.5773e-02  1.6903e-03  3.2568e-04  1.7499e-04  0:00:46 1545
   456  1.6185e-03  2.4888e-04  4.1580e-04  5.4069e-02  1.6179e-03  3.2311e-04  1.7114e-04  0:00:37 1544
   457  1.5450e-03  2.3777e-04  4.2828e-04  5.2670e-02  1.5445e-03  3.2062e-04  1.6716e-04  0:00:30 1543
   458  1.4707e-03  2.2778e-04  4.3992e-04  5.1555e-02  1.4701e-03  3.1790e-04  1.6316e-04  0:05:32 1542
   459  1.3961e-03  2.1910e-04  4.5062e-04  5.0891e-02  1.3956e-03  3.1490e-04  1.5953e-04  0:04:25 1541
   460  1.3219e-03  2.1168e-04  4.6027e-04  5.0427e-02  1.3214e-03  3.1155e-04  1.5655e-04  0:03:32 1540
   461  1.2484e-03  2.0567e-04  4.6878e-04  5.0117e-02  1.2480e-03  3.0796e-04  1.5394e-04  0:02:50 1539
   462  1.1730e-03  2.0128e-04  4.7599e-04  4.9875e-02  1.1725e-03  3.0441e-04  1.5168e-04  0:02:16 1538

  iter  continuity  x-velocity  y-velocity  z-velocity      energy           k       omega     time/iter
   463  1.1000e-03  1.9889e-04  4.8211e-04  4.9360e-02  1.0995e-03  3.0156e-04  1.4906e-04  0:01:48 1537
   464  1.0290e-03  1.9836e-04  4.8676e-04  4.9532e-02  1.0286e-03  2.9751e-04  1.4675e-04  0:01:27 1536
   465  9.5981e-04  1.9957e-04  4.9009e-04  5.0022e-02  9.5936e-04  2.9412e-04  1.4459e-04  0:01:09 1535
   466  8.9253e-04  2.0240e-04  4.9215e-04  5.0677e-02  8.9210e-04  2.9087e-04  1.4293e-04  0:00:55 1534
   467  8.2743e-04  2.0664e-04  4.9297e-04  5.1473e-02  8.2702e-04  2.8772e-04  1.4125e-04  0:00:44 1533
   468  7.6584e-04  2.1204e-04  4.9258e-04  5.2445e-02  7.6544e-04  2.8462e-04  1.3972e-04  0:00:35 1532
   469  7.0897e-04  2.1832e-04  4.9095e-04  5.3537e-02  7.0858e-04  2.8149e-04  1.3832e-04  0:00:28 1531
   470  6.5771e-04  2.2511e-04  4.8815e-04  5.4885e-02  6.5733e-04  2.7856e-04  1.3710e-04  0:05:29 1530
   471  6.1297e-04  2.3215e-04  4.8429e-04  5.6452e-02  6.1261e-04  2.7585e-04  1.3593e-04  0:04:23 1529
   472  5.7603e-04  2.3942e-04  4.7956e-04  5.8319e-02  5.7569e-04  2.7330e-04  1.3555e-04  0:03:30 1528
   473  5.4832e-04  2.4672e-04  4.7408e-04  6.0368e-02  5.4799e-04  2.7089e-04  1.3521e-04  0:02:48 1527

  iter  continuity  x-velocity  y-velocity  z-velocity      energy           k       omega     time/iter
   474  5.3079e-04  2.5390e-04  4.6792e-04  6.2721e-02  5.3047e-04  2.6867e-04  1.3428e-04  0:02:14 1526
   475  5.2388e-04  2.6078e-04  4.6111e-04  6.5594e-02  5.2359e-04  2.6687e-04  1.3380e-04  0:01:47 1525
   476  5.2762e-04  2.6742e-04  4.5376e-04  6.8504e-02  5.2734e-04  2.6525e-04  1.3339e-04  0:01:26 1524
   477  5.4140e-04  2.7385e-04  4.4596e-04  7.1163e-02  5.4114e-04  2.6351e-04  1.3306e-04  0:01:09 1523
   478  5.6425e-04  2.8013e-04  4.3772e-04  7.4454e-02  5.6400e-04  2.6184e-04  1.3211e-04  0:00:55 1522
   479  5.9483e-04  2.8610e-04  4.2910e-04  7.8417e-02  5.9460e-04  2.6084e-04  1.3173e-04  0:00:44 1521
   480  6.3175e-04  2.9188e-04  4.2013e-04  8.3139e-02  6.3153e-04  2.5908e-04  1.3105e-04  0:00:35 1520
   481  6.7368e-04  2.9748e-04  4.1090e-04  8.8652e-02  6.7347e-04  2.5779e-04  1.3068e-04  0:00:28 1519
   482  7.1916e-04  3.0277e-04  4.0135e-04  9.5324e-02  7.1895e-04  2.5663e-04  1.3082e-04  0:00:22 1518
   483  7.6658e-04  3.0775e-04  3.9140e-04  1.0338e-01  7.6637e-04  2.5580e-04  1.3026e-04  0:05:21 1517
   484  8.1468e-04  3.1231e-04  3.8089e-04  1.1272e-01  8.1446e-04  2.5498e-04  1.2924e-04  0:04:17 1516

  iter  continuity  x-velocity  y-velocity  z-velocity      energy           k       omega     time/iter
   485  8.6247e-04  3.1638e-04  3.6968e-04  1.2330e-01  8.6226e-04  2.5439e-04  1.2870e-04  0:03:25 1515
   486  9.0925e-04  3.1993e-04  3.5769e-04  1.3501e-01  9.0903e-04  2.5394e-04  1.2796e-04  0:02:44 1514
   487  9.5491e-04  3.2293e-04  3.4494e-04  1.4820e-01  9.5468e-04  2.5359e-04  1.2696e-04  0:02:11 1513
   488  9.9893e-04  3.2534e-04  3.3147e-04  1.6254e-01  9.9870e-04  2.5360e-04  1.2564e-04  0:01:45 1512
   489  1.0411e-03  3.2712e-04  3.1740e-04  1.7775e-01  1.0409e-03  2.5365e-04  1.2435e-04  0:01:24 1511
   490  1.0814e-03  3.2826e-04  3.0296e-04  1.9173e-01  1.0811e-03  2.5369e-04  1.2325e-04  0:01:07 1510
   491  1.1198e-03  3.2875e-04  2.8839e-04  2.0314e-01  1.1195e-03  2.5380e-04  1.2219e-04  0:00:54 1509
   492  1.1565e-03  3.2860e-04  2.7386e-04  2.1486e-01  1.1563e-03  2.5387e-04  1.2118e-04  0:00:43 1508
   493  1.1916e-03  3.2785e-04  2.5959e-04  2.2708e-01  1.1913e-03  2.5400e-04  1.2022e-04  0:00:34 1507
   494  1.2251e-03  3.2653e-04  2.4574e-04  2.3841e-01  1.2249e-03  2.5413e-04  1.1930e-04  0:00:27 1506
   495  1.2570e-03  3.2468e-04  2.3247e-04  2.4991e-01  1.2567e-03  2.5412e-04  1.1854e-04  0:00:22 1505

  iter  continuity  x-velocity  y-velocity  z-velocity      energy           k       omega     time/iter
   496  1.2872e-03  3.2234e-04  2.1980e-04  2.6175e-01  1.2869e-03  2.5395e-04  1.1794e-04  0:05:18 1504
   497  1.3156e-03  3.1957e-04  2.0788e-04  2.7407e-01  1.3153e-03  2.5367e-04  1.1731e-04  0:04:14 1503
   498  1.3422e-03  3.1636e-04  1.9676e-04  2.8672e-01  1.3420e-03  2.5331e-04  1.1665e-04  0:03:23 1502
   499  1.3672e-03  3.1273e-04  1.8647e-04  3.0015e-01  1.3669e-03  2.5292e-04  1.1610e-04  0:02:43 1501
   500  1.3901e-03  3.0871e-04  1.7707e-04  3.1485e-01  1.3898e-03  2.5246e-04  1.1532e-04  0:02:10 1500
   501  1.4107e-03  3.0434e-04  1.6874e-04  3.3039e-01  1.4104e-03  2.5193e-04  1.1445e-04  0:01:44 1499
   502  1.4286e-03  2.9960e-04  1.6164e-04  3.4688e-01  1.4283e-03  2.5125e-04  1.1371e-04  0:01:23 1498
   503  1.4439e-03  2.9448e-04  1.5593e-04  3.6468e-01  1.4436e-03  2.5052e-04  1.1302e-04  0:01:06 1497
   504  1.4562e-03  2.8898e-04  1.5185e-04  3.8404e-01  1.4559e-03  2.4965e-04  1.1234e-04  0:00:53 1496
   505  1.4654e-03  2.8308e-04  1.4953e-04  4.0525e-01  1.4651e-03  2.4875e-04  1.1187e-04  0:00:42 1495
   506  1.4715e-03  2.7676e-04  1.4902e-04  4.2864e-01  1.4712e-03  2.4760e-04  1.1148e-04  0:00:34 1494

  iter  continuity  x-velocity  y-velocity  z-velocity      energy           k       omega     time/iter
   507  1.4745e-03  2.7004e-04  1.5029e-04  4.5459e-01  1.4741e-03  2.4671e-04  1.1096e-04  0:00:27 1493
   508  1.4745e-03  2.6293e-04  1.5334e-04  4.8326e-01  1.4741e-03  2.4604e-04  1.1054e-04  0:05:20 1492
   509  1.4715e-03  2.5546e-04  1.5803e-04  5.1500e-01  1.4712e-03  2.4540e-04  1.1019e-04  0:04:16 1491
   510  1.4659e-03  2.4761e-04  1.6413e-04  5.4949e-01  1.4655e-03  2.4461e-04  1.0980e-04  0:03:25 1490
   511  1.4576e-03  2.3932e-04  1.7137e-04  5.8619e-01  1.4572e-03  2.4407e-04  1.0993e-04  0:02:44 1489
   512  1.4467e-03  2.3073e-04  1.7956e-04  6.2490e-01  1.4464e-03  2.4346e-04  1.1006e-04  0:02:11 1488
   513  1.4334e-03  2.2193e-04  1.8846e-04  6.6477e-01  1.4330e-03  2.4256e-04  1.1038e-04  0:01:45 1487
   514  1.4175e-03  2.1300e-04  1.9784e-04  7.0535e-01  1.4172e-03  2.4158e-04  1.1120e-04  0:01:24 1486
   515  1.3992e-03  2.0405e-04  2.0747e-04  7.4668e-01  1.3989e-03  2.4053e-04  1.1138e-04  0:01:07 1485
   516  1.3785e-03  1.9520e-04  2.1721e-04  7.8800e-01  1.3781e-03  2.3931e-04  1.1117e-04  0:00:53 1484
   517  1.3552e-03  1.8655e-04  2.2695e-04  8.2888e-01  1.3549e-03  2.3796e-04  1.1066e-04  0:00:43 1483

  iter  continuity  x-velocity  y-velocity  z-velocity      energy           k       omega     time/iter
   518  1.3293e-03  1.7822e-04  2.3661e-04  8.6970e-01  1.3290e-03  2.3689e-04  1.1082e-04  0:00:34 1482
   519  1.3008e-03  1.7031e-04  2.4611e-04  9.0980e-01  1.3005e-03  2.3594e-04  1.1086e-04  0:00:27 1481
   520  1.2696e-03  1.6290e-04  2.5538e-04  9.4720e-01  1.2693e-03  2.3517e-04  1.1063e-04  0:00:22 1480
   521  1.2358e-03  1.5606e-04  2.6436e-04  9.8389e-01  1.2355e-03  2.3443e-04  1.0974e-04  0:00:17 1479
   522  1.1994e-03  1.4987e-04  2.7302e-04  1.0211e+00  1.1991e-03  2.3358e-04  1.0816e-04  0:05:10 1478
   523  1.1606e-03  1.4447e-04  2.8131e-04  1.0594e+00  1.1603e-03  2.3261e-04  1.0595e-04  0:04:07 1477
   524  1.1193e-03  1.3997e-04  2.8921e-04  1.0995e+00  1.1190e-03  2.3154e-04  1.0387e-04  0:03:18 1476
   525  1.0758e-03  1.3642e-04  2.9666e-04  1.1412e+00  1.0754e-03  2.3049e-04  1.0188e-04  0:02:38 1475
   526  1.0301e-03  1.3390e-04  3.0360e-04  1.1841e+00  1.0298e-03  2.2923e-04  1.0035e-04  0:02:06 1474
   527  9.8269e-04  1.3243e-04  3.0999e-04  1.2278e+00  9.8240e-04  2.2783e-04  9.8574e-05  0:01:41 1473
   528  9.3401e-04  1.3202e-04  3.1577e-04  1.2719e+00  9.3373e-04  2.2635e-04  9.7121e-05  0:01:21 1472

  iter  continuity  x-velocity  y-velocity  z-velocity      energy           k       omega     time/iter
   529  8.8455e-04  1.3264e-04  3.2091e-04  1.3165e+00  8.8427e-04  2.2479e-04  9.6237e-05  0:01:05 1471
   530  8.3500e-04  1.3429e-04  3.2539e-04  1.3612e+00  8.3472e-04  2.2319e-04  9.5410e-05  0:00:52 1470
   531  7.8570e-04  1.3693e-04  3.2919e-04  1.4074e+00  7.8544e-04  2.2147e-04  9.4887e-05  0:05:35 1469
   532  7.3712e-04  1.4048e-04  3.3229e-04  1.4534e+00  7.3686e-04  2.1981e-04  9.4147e-05  0:04:28 1468
   533  6.8979e-04  1.4475e-04  3.3464e-04  1.4981e+00  6.8954e-04  2.1838e-04  9.3668e-05  0:03:34 1467
   534  6.4410e-04  1.4970e-04  3.3626e-04  1.5397e+00  6.4385e-04  2.1713e-04  9.3232e-05  0:02:51 1466
   535  6.0041e-04  1.5526e-04  3.3713e-04  1.5774e+00  6.0017e-04  2.1618e-04  9.2926e-05  0:02:17 1465
   536  5.5919e-04  1.6128e-04  3.3728e-04  1.6085e+00  5.5896e-04  2.1532e-04  9.2684e-05  0:01:49 1464
   537  5.2105e-04  1.6760e-04  3.3669e-04  1.6309e+00  5.2082e-04  2.1460e-04  9.2492e-05  0:01:27 1463
   538  4.8667e-04  1.7408e-04  3.3542e-04  1.6440e+00  4.8645e-04  2.1411e-04  9.2231e-05  0:06:02 1462
   539  4.5706e-04  1.8060e-04  3.3349e-04  1.6488e+00  4.5684e-04  2.1359e-04  9.1992e-05  0:04:50 1461

  iter  continuity  x-velocity  y-velocity  z-velocity      energy           k       omega     time/iter
   540  4.3318e-04  1.8705e-04  3.3098e-04  1.6488e+00  4.3296e-04  2.1319e-04  9.1983e-05  0:03:52 1460
   541  4.1589e-04  1.9343e-04  3.2790e-04  1.6457e+00  4.1568e-04  2.1255e-04  9.1543e-05  0:03:05 1459
   542  4.0591e-04  1.9967e-04  3.2429e-04  1.6419e+00  4.0570e-04  2.1173e-04  9.1112e-05  0:02:28 1458
   543  4.0362e-04  2.0570e-04  3.2018e-04  1.6327e+00  4.0342e-04  2.1131e-04  9.0798e-05  0:01:58 1457
   544  4.0892e-04  2.1148e-04  3.1560e-04  1.6182e+00  4.0872e-04  2.1090e-04  9.0537e-05  0:01:35 1456
   545  4.2122e-04  2.1694e-04  3.1058e-04  1.6021e+00  4.2103e-04  2.1063e-04  9.0277e-05  0:06:07 1455
   546  4.3961e-04  2.2207e-04  3.0513e-04  1.5847e+00  4.3942e-04  2.1029e-04  8.9983e-05  0:04:53 1454
   547  4.6297e-04  2.2687e-04  2.9926e-04  1.5684e+00  4.6278e-04  2.1005e-04  9.0138e-05  0:03:54 1453
   548  4.9009e-04  2.3133e-04  2.9301e-04  1.5556e+00  4.8991e-04  2.0970e-04  9.0088e-05  0:03:07 1452
   549  5.1978e-04  2.3542e-04  2.8630e-04  1.5457e+00  5.1960e-04  2.0931e-04  9.0128e-05  0:02:30 1451
   550  5.5092e-04  2.3914e-04  2.7915e-04  1.5411e+00  5.5073e-04  2.0894e-04  8.9902e-05  0:02:00 1450

  iter  continuity  x-velocity  y-velocity  z-velocity      energy           k       omega     time/iter
   551  5.8272e-04  2.4251e-04  2.7157e-04  1.5432e+00  5.8254e-04  2.0856e-04  8.9636e-05  0:01:36 1449
   552  6.1480e-04  2.4555e-04  2.6359e-04  1.5499e+00  6.1461e-04  2.0810e-04  8.9041e-05  0:06:06 1448
   553  6.4663e-04  2.4823e-04  2.5532e-04  1.5583e+00  6.4644e-04  2.0752e-04  8.8581e-05  0:04:53 1447
   554  6.7816e-04  2.5053e-04  2.4683e-04  1.5661e+00  6.7797e-04  2.0685e-04  8.8393e-05  0:03:54 1446
   555  7.0906e-04  2.5245e-04  2.3818e-04  1.5708e+00  7.0887e-04  2.0614e-04  8.8075e-05  0:03:07 1445
   556  7.3907e-04  2.5399e-04  2.2939e-04  1.5708e+00  7.3887e-04  2.0547e-04  8.7839e-05  0:02:30 1444
   557  7.6804e-04  2.5511e-04  2.2051e-04  1.5647e+00  7.6783e-04  2.0483e-04  8.7667e-05  0:02:00 1443
   558  7.9584e-04  2.5578e-04  2.1159e-04  1.5546e+00  7.9562e-04  2.0426e-04  8.7471e-05  0:01:36 1442
   559  8.2223e-04  2.5598e-04  2.0267e-04  1.5415e+00  8.2202e-04  2.0380e-04  8.7373e-05  0:06:05 1441
   560  8.4708e-04  2.5568e-04  1.9378e-04  1.5231e+00  8.4686e-04  2.0329e-04  8.7337e-05  0:04:51 1440
   561  8.7009e-04  2.5488e-04  1.8493e-04  1.5010e+00  8.6986e-04  2.0269e-04  8.7125e-05  0:03:53 1439

  iter  continuity  x-velocity  y-velocity  z-velocity      energy           k       omega     time/iter
   562  8.9096e-04  2.5360e-04  1.7614e-04  1.4768e+00  8.9073e-04  2.0206e-04  8.7013e-05  0:03:06 1438
   563  9.0959e-04  2.5185e-04  1.6745e-04  1.4520e+00  9.0935e-04  2.0146e-04  8.6827e-05  0:02:29 1437
   564  9.2590e-04  2.4965e-04  1.5892e-04  1.4275e+00  9.2566e-04  2.0077e-04  8.6517e-05  0:01:59 1436
   565  9.3988e-04  2.4701e-04  1.5059e-04  1.4024e+00  9.3963e-04  2.0003e-04  8.6316e-05  0:01:35 1435
   566  9.5158e-04  2.4398e-04  1.4261e-04  1.3790e+00  9.5133e-04  1.9924e-04  8.6138e-05  0:01:16 1434
   567  9.6106e-04  2.4057e-04  1.3513e-04  1.3563e+00  9.6080e-04  1.9839e-04  8.6013e-05  0:05:47 1433
   568  9.6838e-04  2.3677e-04  1.2831e-04  1.3329e+00  9.6812e-04  1.9750e-04  8.6008e-05  0:04:38 1432
   569  9.7360e-04  2.3259e-04  1.2233e-04  1.3091e+00  9.7334e-04  1.9657e-04  8.6099e-05  0:03:42 1431
   570  9.7679e-04  2.2804e-04  1.1735e-04  1.2855e+00  9.7652e-04  1.9558e-04  8.6260e-05  0:02:58 1430
   571  9.7795e-04  2.2310e-04  1.1355e-04  1.2626e+00  9.7768e-04  1.9457e-04  8.6550e-05  0:02:22 1429
   572  9.7702e-04  2.1782e-04  1.1101e-04  1.2414e+00  9.7675e-04  1.9355e-04  8.6879e-05  0:01:53 1428

  iter  continuity  x-velocity  y-velocity  z-velocity      energy           k       omega     time/iter
   573  9.7409e-04  2.1224e-04  1.0980e-04  1.2210e+00  9.7382e-04  1.9255e-04  8.7147e-05  0:01:31 1427
   574  9.6926e-04  2.0637e-04  1.0993e-04  1.2031e+00  9.6899e-04  1.9152e-04  8.7485e-05  0:05:58 1426
   575  9.6258e-04  2.0021e-04  1.1132e-04  1.1891e+00  9.6231e-04  1.9045e-04  8.7905e-05  0:04:46 1425
   576  9.5409e-04  1.9379e-04  1.1388e-04  1.1814e+00  9.5382e-04  1.8933e-04  8.8451e-05  0:03:49 1424
   577  9.4385e-04  1.8712e-04  1.1749e-04  1.1799e+00  9.4358e-04  1.8822e-04  8.9159e-05  0:03:03 1423
   578  9.3188e-04  1.8024e-04  1.2201e-04  1.1857e+00  9.3162e-04  1.8708e-04  8.9705e-05  0:02:26 1422
   579  9.1822e-04  1.7320e-04  1.2728e-04  1.1997e+00  9.1796e-04  1.8584e-04  8.9789e-05  0:01:57 1421
   580  9.0287e-04  1.6604e-04  1.3314e-04  1.2226e+00  9.0261e-04  1.8457e-04  8.9197e-05  0:01:33 1420
   581  8.8584e-04  1.5884e-04  1.3948e-04  1.2538e+00  8.8559e-04  1.8328e-04  8.8280e-05  0:05:58 1419
   582  8.6713e-04  1.5166e-04  1.4615e-04  1.2903e+00  8.6688e-04  1.8193e-04  8.7085e-05  0:04:47 1418
   583  8.4675e-04  1.4463e-04  1.5304e-04  1.3293e+00  8.4650e-04  1.8048e-04  8.5265e-05  0:03:49 1417

  iter  continuity  x-velocity  y-velocity  z-velocity      energy           k       omega     time/iter
   584  8.2476e-04  1.3782e-04  1.6004e-04  1.3667e+00  8.2452e-04  1.7903e-04  8.3178e-05  0:03:03 1416
   585  8.0124e-04  1.3132e-04  1.6706e-04  1.3995e+00  8.0100e-04  1.7764e-04  8.0958e-05  0:02:26 1415
   586  7.7629e-04  1.2515e-04  1.7398e-04  1.4267e+00  7.7605e-04  1.7621e-04  7.8792e-05  0:01:57 1414
   587  7.5001e-04  1.1940e-04  1.8074e-04  1.4475e+00  7.4978e-04  1.7474e-04  7.6805e-05  0:01:34 1413
   588  7.2253e-04  1.1407e-04  1.8726e-04  1.4603e+00  7.2231e-04  1.7322e-04  7.5374e-05  0:05:57 1412
   589  6.9396e-04  1.0929e-04  1.9348e-04  1.4640e+00  6.9375e-04  1.7187e-04  7.4289e-05  0:04:46 1411
   590  6.6442e-04  1.0514e-04  1.9936e-04  1.4561e+00  6.6421e-04  1.7043e-04  7.2952e-05  0:03:48 1410
   591  6.3401e-04  1.0162e-04  2.0486e-04  1.4354e+00  6.3381e-04  1.6884e-04  7.1993e-05  0:03:02 1409
   592  6.0285e-04  9.8770e-05  2.0995e-04  1.4015e+00  6.0265e-04  1.6717e-04  7.0986e-05  0:02:26 1408
   593  5.7111e-04  9.6563e-05  2.1457e-04  1.3556e+00  5.7092e-04  1.6543e-04  7.0179e-05  0:01:57 1407
   594  5.3905e-04  9.5018e-05  2.1871e-04  1.2992e+00  5.3886e-04  1.6370e-04  6.9317e-05  0:01:33 1406

  iter  continuity  x-velocity  y-velocity  z-velocity      energy           k       omega     time/iter
   595  5.0697e-04  9.4195e-05  2.2237e-04  1.2347e+00  5.0679e-04  1.6205e-04  6.8735e-05  0:01:15 1405
   596  4.7516e-04  9.4134e-05  2.2556e-04  1.1661e+00  4.7498e-04  1.6043e-04  6.8148e-05  0:05:40 1404
   597  4.4397e-04  9.4839e-05  2.2828e-04  1.0959e+00  4.4379e-04  1.5883e-04  6.7627e-05  0:04:32 1403
   598  4.1370e-04  9.6285e-05  2.3055e-04  1.0269e+00  4.1353e-04  1.5736e-04  6.7234e-05  0:03:38 1402
   599  3.8481e-04  9.8432e-05  2.3237e-04  9.6317e-01  3.8465e-04  1.5598e-04  6.7083e-05  0:02:54 1401
   600  3.5778e-04  1.0124e-04  2.3372e-04  9.0983e-01  3.5762e-04  1.5478e-04  6.6760e-05  0:02:19 1400
   601  3.3304e-04  1.0460e-04  2.3460e-04  8.7220e-01  3.3288e-04  1.5373e-04  6.6512e-05  0:01:51 1399
   602  3.1116e-04  1.0838e-04  2.3500e-04  8.5242e-01  3.1100e-04  1.5322e-04  6.6238e-05  0:01:29 1398
   603  2.9270e-04  1.1245e-04  2.3488e-04  8.4750e-01  2.9255e-04  1.5195e-04  6.5817e-05  0:05:50 1397
   604  2.7825e-04  1.1672e-04  2.3422e-04  8.5113e-01  2.7809e-04  1.5096e-04  6.5272e-05  0:04:40 1396
   605  2.6831e-04  1.2106e-04  2.3302e-04  8.5688e-01  2.6816e-04  1.5003e-04  6.4923e-05  0:03:44 1395

  iter  continuity  x-velocity  y-velocity  z-velocity      energy           k       omega     time/iter
   606  2.6347e-04  1.2540e-04  2.3129e-04  8.6077e-01  2.6332e-04  1.4915e-04  6.4308e-05  0:02:59 1394
   607  2.6408e-04  1.2963e-04  2.2902e-04  8.6344e-01  2.6394e-04  1.4844e-04  6.3879e-05  0:02:23 1393
   608  2.7006e-04  1.3372e-04  2.2623e-04  8.6631e-01  2.6992e-04  1.4776e-04  6.3550e-05  0:01:54 1392
   609  2.8090e-04  1.3760e-04  2.2291e-04  8.7375e-01  2.8076e-04  1.4716e-04  6.3102e-05  0:01:31 1391
   610  2.9581e-04  1.4118e-04  2.1904e-04  8.9352e-01  2.9568e-04  1.4668e-04  6.2708e-05  0:05:51 1390
   611  3.1387e-04  1.4448e-04  2.1465e-04  9.3126e-01  3.1374e-04  1.4628e-04  6.2141e-05  0:04:41 1389
   612  3.3420e-04  1.4745e-04  2.0974e-04  9.8668e-01  3.3407e-04  1.4597e-04  6.1611e-05  0:03:44 1388
   613  3.5602e-04  1.5009e-04  2.0434e-04  1.0562e+00  3.5589e-04  1.4563e-04  6.1376e-05  0:02:59 1387
   614  3.7869e-04  1.5239e-04  1.9851e-04  1.1348e+00  3.7857e-04  1.4531e-04  6.1180e-05  0:02:23 1386
   615  4.0174e-04  1.5434e-04  1.9226e-04  1.2178e+00  4.0161e-04  1.4497e-04  6.0997e-05  0:01:55 1385
   616  4.2476e-04  1.5595e-04  1.8570e-04  1.3034e+00  4.2463e-04  1.4467e-04  6.0808e-05  0:01:32 1384

  iter  continuity  x-velocity  y-velocity  z-velocity      energy           k       omega     time/iter
   617  4.4756e-04  1.5722e-04  1.7887e-04  1.3882e+00  4.4742e-04  1.4437e-04  6.0643e-05  0:05:50 1383
   618  4.6990e-04  1.5815e-04  1.7183e-04  1.4705e+00  4.6977e-04  1.4404e-04  6.0315e-05  0:04:40 1382
   619  4.9165e-04  1.5871e-04  1.6463e-04  1.5499e+00  4.9151e-04  1.4366e-04  5.9850e-05  0:03:44 1381
   620  5.1271e-04  1.5890e-04  1.5731e-04  1.6266e+00  5.1257e-04  1.4323e-04  5.9303e-05  0:02:59 1380
   621  5.3302e-04  1.5872e-04  1.4989e-04  1.6982e+00  5.3288e-04  1.4287e-04  5.8960e-05  0:02:23 1379
   622  5.5244e-04  1.5819e-04  1.4243e-04  1.7623e+00  5.5229e-04  1.4254e-04  5.8570e-05  0:01:54 1378
   623  5.7082e-04  1.5734e-04  1.3498e-04  1.8139e+00  5.7066e-04  1.4225e-04  5.8222e-05  0:01:31 1377
   624  5.8807e-04  1.5620e-04  1.2754e-04  1.8495e+00  5.8791e-04  1.4189e-04  5.7867e-05  0:05:48 1376
   625  6.0415e-04  1.5480e-04  1.2015e-04  1.8664e+00  6.0400e-04  1.4150e-04  5.7484e-05  0:04:38 1375
   626  6.1908e-04  1.5315e-04  1.1287e-04  1.8618e+00  6.1892e-04  1.4104e-04  5.7151e-05  0:03:43 1374
[...]
  1838  1.5202e-07  6.8581e-08  1.3200e-07  2.9564e-03  1.5194e-07  9.1396e-08  4.6270e-08  0:00:03  162
  1839  1.5009e-07  7.0572e-08  1.3058e-07  3.0740e-03  1.5001e-07  9.0745e-08  4.5957e-08  0:00:02  161
  1840  1.5114e-07  7.2532e-08  1.2893e-07  3.1910e-03  1.5107e-07  9.0214e-08  4.5608e-08  0:00:34  160
  1841  1.5501e-07  7.4441e-08  1.2706e-07  3.3062e-03  1.5493e-07  8.9743e-08  4.5227e-08  0:00:27  159
  1842  1.6134e-07  7.6281e-08  1.2498e-07  3.4184e-03  1.6127e-07  8.9351e-08  4.4850e-08  0:00:21  158
  1843  1.6972e-07  7.8036e-08  1.2268e-07  3.5267e-03  1.6965e-07  8.8977e-08  4.4452e-08  0:00:17  157
  1844  1.7971e-07  7.9695e-08  1.2020e-07  3.6305e-03  1.7964e-07  8.8558e-08  4.4033e-08  0:00:14  156
  1845  1.9088e-07  8.1245e-08  1.1752e-07  3.7289e-03  1.9082e-07  8.8098e-08  4.3602e-08  0:00:11  155
  1846  2.0289e-07  8.2676e-08  1.1468e-07  3.8215e-03  2.0283e-07  8.7609e-08  4.3146e-08  0:00:09  154
  1847  2.1543e-07  8.3979e-08  1.1167e-07  3.9077e-03  2.1536e-07  8.7077e-08  4.2657e-08  0:00:07  153
  1848  2.2825e-07  8.5148e-08  1.0852e-07  3.9871e-03  2.2818e-07  8.6487e-08  4.2140e-08  0:00:05  152

  iter  continuity  x-velocity  y-velocity  z-velocity      energy           k       omega     time/iter
  1849  2.4116e-07  8.6176e-08  1.0524e-07  4.0594e-03  2.4108e-07  8.5868e-08  4.1608e-08  0:00:04  151
  1850  2.5398e-07  8.7059e-08  1.0185e-07  4.1242e-03  2.5390e-07  8.5205e-08  4.1045e-08  0:00:03  150
  1851  2.6658e-07  8.7792e-08  9.8350e-08  4.1814e-03  2.6650e-07  8.4519e-08  4.0488e-08  0:00:03  149
  1852  2.7886e-07  8.8373e-08  9.4773e-08  4.2307e-03  2.7878e-07  8.3835e-08  3.9921e-08  0:00:02  148
  1853  2.9071e-07  8.8798e-08  9.1136e-08  4.2719e-03  2.9063e-07  8.3216e-08  3.9362e-08  0:00:31  147
  1854  3.0208e-07  8.9068e-08  8.7458e-08  4.3050e-03  3.0200e-07  8.2729e-08  3.8829e-08  0:00:25  146
  1855  3.1288e-07  8.9180e-08  8.3763e-08  4.3298e-03  3.1280e-07  8.2327e-08  3.8314e-08  0:00:20  145
  1856  3.2307e-07  8.9135e-08  8.0077e-08  4.3463e-03  3.2299e-07  8.1950e-08  3.7831e-08  0:00:16  144
  1857  3.3260e-07  8.8934e-08  7.6426e-08  4.3544e-03  3.3252e-07  8.1594e-08  3.7340e-08  0:00:12  143
  1858  3.4144e-07  8.8578e-08  7.2842e-08  4.3542e-03  3.4135e-07  8.1286e-08  3.6865e-08  0:00:10  142
  1859  3.4954e-07  8.8070e-08  6.9358e-08  4.3456e-03  3.4945e-07  8.0954e-08  3.6399e-08  0:00:08  141

  iter  continuity  x-velocity  y-velocity  z-velocity      energy           k       omega     time/iter
  1860  3.5689e-07  8.7411e-08  6.6011e-08  4.3288e-03  3.5680e-07  8.0602e-08  3.5944e-08  0:00:06  140
  1861  3.6346e-07  8.6605e-08  6.2841e-08  4.3039e-03  3.6336e-07  8.0195e-08  3.5513e-08  0:00:05  139
  1862  3.6923e-07  8.5655e-08  5.9893e-08  4.2709e-03  3.6913e-07  7.9721e-08  3.5096e-08  0:00:04  138
  1863  3.7419e-07  8.4566e-08  5.7213e-08  4.2300e-03  3.7409e-07  7.9246e-08  3.4705e-08  0:00:03  137
  1864  3.7832e-07  8.3343e-08  5.4850e-08  4.1813e-03  3.7822e-07  7.8749e-08  3.4340e-08  0:00:30  136
  1865  3.8163e-07  8.1991e-08  5.2850e-08  4.1251e-03  3.8153e-07  7.8274e-08  3.4012e-08  0:00:24  135
  1866  3.8410e-07  8.0516e-08  5.1256e-08  4.0616e-03  3.8400e-07  7.7818e-08  3.3712e-08  0:00:19  134
  1867  3.8574e-07  7.8924e-08  5.0102e-08  3.9911e-03  3.8564e-07  7.7337e-08  3.3425e-08  0:00:15  133
  1868  3.8655e-07  7.7223e-08  4.9410e-08  3.9137e-03  3.8645e-07  7.6834e-08  3.3176e-08  0:00:12  132
  1869  3.8653e-07  7.5420e-08  4.9187e-08  3.8298e-03  3.8643e-07  7.6289e-08  3.2937e-08  0:00:09  131
  1870  3.8569e-07  7.3523e-08  4.9422e-08  3.7398e-03  3.8559e-07  7.5683e-08  3.2703e-08  0:00:07  130

  iter  continuity  x-velocity  y-velocity  z-velocity      energy           k       omega     time/iter
  1871  3.8404e-07  7.1540e-08  5.0087e-08  3.6441e-03  3.8394e-07  7.4995e-08  3.2492e-08  0:00:06  129
  1872  3.8159e-07  6.9483e-08  5.1142e-08  3.5430e-03  3.8149e-07  7.4259e-08  3.2310e-08  0:00:05  128
  1873  3.7836e-07  6.7360e-08  5.2538e-08  3.4369e-03  3.7826e-07  7.3490e-08  3.2152e-08  0:00:04  127
  1874  3.7436e-07  6.5183e-08  5.4221e-08  3.3264e-03  3.7426e-07  7.2680e-08  3.2016e-08  0:00:03  126
  1875  3.6961e-07  6.2963e-08  5.6135e-08  3.2120e-03  3.6951e-07  7.1915e-08  3.1884e-08  0:00:02  125
  1876  3.6414e-07  6.0714e-08  5.8228e-08  3.0942e-03  3.6404e-07  7.1192e-08  3.1790e-08  0:00:02  124
  1877  3.5796e-07  5.8450e-08  6.0451e-08  2.9736e-03  3.5786e-07  7.0548e-08  3.1719e-08  0:00:26  123
  1878  3.5111e-07  5.6184e-08  6.2761e-08  2.8510e-03  3.5101e-07  6.9947e-08  3.1643e-08  0:00:21  122
  1879  3.4360e-07  5.3935e-08  6.5117e-08  2.7270e-03  3.4351e-07  6.9393e-08  3.1560e-08  0:00:16  121
  1880  3.3548e-07  5.1719e-08  6.7487e-08  2.6024e-03  3.3538e-07  6.8845e-08  3.1487e-08  0:00:13  120
  1881  3.2676e-07  4.9556e-08  6.9840e-08  2.4782e-03  3.2667e-07  6.8302e-08  3.1439e-08  0:00:10  119

  iter  continuity  x-velocity  y-velocity  z-velocity      energy           k       omega     time/iter
  1882  3.1749e-07  4.7467e-08  7.2150e-08  2.3554e-03  3.1740e-07  6.7726e-08  3.1402e-08  0:00:08  118
  1883  3.0770e-07  4.5474e-08  7.4396e-08  2.2351e-03  3.0761e-07  6.7112e-08  3.1370e-08  0:00:07  117
  1884  2.9744e-07  4.3602e-08  7.6557e-08  2.1184e-03  2.9735e-07  6.6453e-08  3.1354e-08  0:00:05  116
  1885  2.8673e-07  4.1875e-08  7.8619e-08  2.0069e-03  2.8664e-07  6.5744e-08  3.1346e-08  0:00:04  115
  1886  2.7563e-07  4.0319e-08  8.0566e-08  1.9021e-03  2.7554e-07  6.5002e-08  3.1328e-08  0:00:03  114
  1887  2.6418e-07  3.8960e-08  8.2386e-08  1.8057e-03  2.6409e-07  6.4295e-08  3.1303e-08  0:00:03  113
  1888  2.5243e-07  3.7820e-08  8.4069e-08  1.7194e-03  2.5235e-07  6.3638e-08  3.1258e-08  0:00:02  112
  1889  2.4044e-07  3.6920e-08  8.5606e-08  1.6452e-03  2.4036e-07  6.2989e-08  3.1201e-08  0:00:24  111
  1890  2.2826e-07  3.6275e-08  8.6989e-08  1.5849e-03  2.2819e-07  6.2379e-08  3.1130e-08  0:00:19  110
  1891  2.1597e-07  3.5893e-08  8.8213e-08  1.5399e-03  2.1590e-07  6.1782e-08  3.1049e-08  0:00:15  109
  1892  2.0364e-07  3.5775e-08  8.9273e-08  1.5115e-03  2.0357e-07  6.1228e-08  3.0968e-08  0:00:12  108

  iter  continuity  x-velocity  y-velocity  z-velocity      energy           k       omega     time/iter
  1893  1.9134e-07  3.5913e-08  9.0164e-08  1.5001e-03  1.9127e-07  6.0683e-08  3.0886e-08  0:00:09  107
  1894  1.7918e-07  3.6292e-08  9.0883e-08  1.5055e-03  1.7912e-07  6.0157e-08  3.0789e-08  0:00:07  106
  1895  1.6727e-07  3.6891e-08  9.1429e-08  1.5268e-03  1.6721e-07  5.9629e-08  3.0690e-08  0:00:06  105
  1896  1.5574e-07  3.7685e-08  9.1799e-08  1.5626e-03  1.5568e-07  5.9090e-08  3.0584e-08  0:00:05  104
  1897  1.4474e-07  3.8644e-08  9.1994e-08  1.6109e-03  1.4468e-07  5.8544e-08  3.0462e-08  0:00:04  103
  1898  1.3447e-07  3.9741e-08  9.2013e-08  1.6697e-03  1.3441e-07  5.8010e-08  3.0323e-08  0:00:03  102
  1899  1.2513e-07  4.0946e-08  9.1858e-08  1.7368e-03  1.2507e-07  5.7492e-08  3.0181e-08  0:00:02  101
  1900  1.1699e-07  4.2232e-08  9.1529e-08  1.8103e-03  1.1693e-07  5.7033e-08  3.0042e-08  0:00:02  100
  1901  1.1031e-07  4.3575e-08  9.1030e-08  1.8882e-03  1.1025e-07  5.6641e-08  2.9893e-08  0:00:01   99
  1902  1.0536e-07  4.4952e-08  9.0362e-08  1.9691e-03  1.0530e-07  5.6319e-08  2.9736e-08  0:00:21   98
  1903  1.0236e-07  4.6341e-08  8.9530e-08  2.0515e-03  1.0230e-07  5.6015e-08  2.9575e-08  0:00:16   97

  iter  continuity  x-velocity  y-velocity  z-velocity      energy           k       omega     time/iter
  1904  1.0142e-07  4.7726e-08  8.8537e-08  2.1342e-03  1.0137e-07  5.5733e-08  2.9404e-08  0:00:13   96
  1905  1.0254e-07  4.9091e-08  8.7388e-08  2.2161e-03  1.0250e-07  5.5533e-08  2.9207e-08  0:00:10   95
  1906  1.0557e-07  5.0420e-08  8.6089e-08  2.2964e-03  1.0552e-07  5.5387e-08  2.8999e-08  0:00:08   94
  1907  1.1024e-07  5.1702e-08  8.4644e-08  2.3743e-03  1.1020e-07  5.5271e-08  2.8793e-08  0:00:06   93
  1908  1.1627e-07  5.2927e-08  8.3062e-08  2.4492e-03  1.1622e-07  5.5149e-08  2.8568e-08  0:00:05   92
  1909  1.2333e-07  5.4085e-08  8.1347e-08  2.5205e-03  1.2328e-07  5.4998e-08  2.8324e-08  0:00:04   91
  1910  1.3115e-07  5.5167e-08  7.9509e-08  2.5878e-03  1.3111e-07  5.4818e-08  2.8074e-08  0:00:03   90
  1911  1.3949e-07  5.6167e-08  7.7555e-08  2.6507e-03  1.3945e-07  5.4612e-08  2.7799e-08  0:00:03   89
  1912  1.4815e-07  5.7079e-08  7.5495e-08  2.7089e-03  1.4811e-07  5.4373e-08  2.7512e-08  0:00:02   88
  1913  1.5697e-07  5.7897e-08  7.3336e-08  2.7620e-03  1.5693e-07  5.4098e-08  2.7208e-08  0:00:02   87
  1914  1.6581e-07  5.8618e-08  7.1091e-08  2.8099e-03  1.6577e-07  5.3805e-08  2.6891e-08  0:00:18   86

  iter  continuity  x-velocity  y-velocity  z-velocity      energy           k       omega     time/iter
  1915  1.7457e-07  5.9237e-08  6.8768e-08  2.8524e-03  1.7452e-07  5.3490e-08  2.6556e-08  0:00:15   85
  1916  1.8315e-07  5.9752e-08  6.6381e-08  2.8892e-03  1.8310e-07  5.3164e-08  2.6227e-08  0:00:12   84
  1917  1.9149e-07  6.0160e-08  6.3941e-08  2.9204e-03  1.9144e-07  5.2839e-08  2.5891e-08  0:00:09   83
  1918  1.9953e-07  6.0460e-08  6.1462e-08  2.9458e-03  1.9947e-07  5.2564e-08  2.5560e-08  0:00:07   82
  1919  2.0721e-07  6.0650e-08  5.8958e-08  2.9653e-03  2.0715e-07  5.2373e-08  2.5251e-08  0:00:06   81
  1920  2.1449e-07  6.0730e-08  5.6445e-08  2.9790e-03  2.1444e-07  5.2238e-08  2.4966e-08  0:00:04   80
  1921  2.2135e-07  6.0701e-08  5.3940e-08  2.9867e-03  2.2129e-07  5.2116e-08  2.4692e-08  0:00:04   79
  1922  2.2774e-07  6.0562e-08  5.1462e-08  2.9887e-03  2.2768e-07  5.2009e-08  2.4408e-08  0:00:03   78
  1923  2.3365e-07  6.0315e-08  4.9033e-08  2.9848e-03  2.3359e-07  5.1929e-08  2.4136e-08  0:00:02   77
  1924  2.3905e-07  5.9962e-08  4.6675e-08  2.9751e-03  2.3899e-07  5.1838e-08  2.3867e-08  0:00:02   76
  1925  2.4393e-07  5.9503e-08  4.4413e-08  2.9598e-03  2.4387e-07  5.1721e-08  2.3607e-08  0:00:01   75

  iter  continuity  x-velocity  y-velocity  z-velocity      energy           k       omega     time/iter
  1926  2.4827e-07  5.8942e-08  4.2276e-08  2.9388e-03  2.4821e-07  5.1560e-08  2.3363e-08  0:00:01   74
  1927  2.5207e-07  5.8282e-08  4.0293e-08  2.9125e-03  2.5200e-07  5.1372e-08  2.3125e-08  0:00:15   73
  1928  2.5531e-07  5.7526e-08  3.8497e-08  2.8807e-03  2.5524e-07  5.1170e-08  2.2909e-08  0:00:12   72
  1929  2.5798e-07  5.6677e-08  3.6920e-08  2.8438e-03  2.5791e-07  5.0954e-08  2.2709e-08  0:00:10   71
  1930  2.6009e-07  5.5740e-08  3.5595e-08  2.8019e-03  2.6002e-07  5.0740e-08  2.2541e-08  0:00:08   70
  1931  2.6164e-07  5.4719e-08  3.4550e-08  2.7552e-03  2.6157e-07  5.0528e-08  2.2377e-08  0:00:06   69
  1932  2.6261e-07  5.3619e-08  3.3807e-08  2.7038e-03  2.6254e-07  5.0310e-08  2.2229e-08  0:00:05   68
  1933  2.6302e-07  5.2445e-08  3.3382e-08  2.6480e-03  2.6296e-07  5.0063e-08  2.2102e-08  0:00:04   67
  1934  2.6288e-07  5.1202e-08  3.3276e-08  2.5881e-03  2.6281e-07  4.9780e-08  2.1977e-08  0:00:03   66
  1935  2.6217e-07  4.9897e-08  3.3480e-08  2.5242e-03  2.6210e-07  4.9456e-08  2.1858e-08  0:00:02   65
  1936  2.6092e-07  4.8535e-08  3.3976e-08  2.4567e-03  2.6085e-07  4.9076e-08  2.1750e-08  0:00:02   64

  iter  continuity  x-velocity  y-velocity  z-velocity      energy           k       omega     time/iter
  1937  2.5914e-07  4.7124e-08  3.4734e-08  2.3857e-03  2.5907e-07  4.8678e-08  2.1663e-08  0:00:01   63
  1938  2.5682e-07  4.5671e-08  3.5719e-08  2.3118e-03  2.5675e-07  4.8243e-08  2.1588e-08  0:00:01   62
  1939  2.5399e-07  4.4182e-08  3.6894e-08  2.2351e-03  2.5392e-07  4.7797e-08  2.1518e-08  0:00:13   61
  1940  2.5065e-07  4.2668e-08  3.8222e-08  2.1560e-03  2.5059e-07  4.7361e-08  2.1459e-08  0:00:10   60
  1941  2.4683e-07  4.1136e-08  3.9668e-08  2.0750e-03  2.4677e-07  4.6946e-08  2.1424e-08  0:00:08   59
  1942  2.4254e-07  3.9596e-08  4.1197e-08  1.9923e-03  2.4247e-07  4.6586e-08  2.1405e-08  0:00:06   58
  1943  2.3780e-07  3.8059e-08  4.2780e-08  1.9086e-03  2.3773e-07  4.6252e-08  2.1382e-08  0:00:05   57
  1944  2.3262e-07  3.6535e-08  4.4391e-08  1.8242e-03  2.3255e-07  4.5960e-08  2.1358e-08  0:00:04   56
  1945  2.2702e-07  3.5038e-08  4.6008e-08  1.7397e-03  2.2696e-07  4.5666e-08  2.1344e-08  0:00:03   55
  1946  2.2104e-07  3.3579e-08  4.7610e-08  1.6558e-03  2.2097e-07  4.5360e-08  2.1340e-08  0:00:02   54
  1947  2.1468e-07  3.2173e-08  4.9179e-08  1.5730e-03  2.1462e-07  4.5036e-08  2.1340e-08  0:00:02   53

  iter  continuity  x-velocity  y-velocity  z-velocity      energy           k       omega     time/iter
  1948  2.0798e-07  3.0836e-08  5.0702e-08  1.4921e-03  2.0792e-07  4.4675e-08  2.1342e-08  0:00:01   52
  1949  2.0096e-07  2.9583e-08  5.2166e-08  1.4140e-03  2.0090e-07  4.4280e-08  2.1359e-08  0:00:01   51
  1950  1.9365e-07  2.8431e-08  5.3559e-08  1.3396e-03  1.9359e-07  4.3850e-08  2.1378e-08  0:00:01   50
  1951  1.8609e-07  2.7398e-08  5.4871e-08  1.2700e-03  1.8603e-07  4.3401e-08  2.1388e-08  0:00:01   49
  1952  1.7829e-07  2.6499e-08  5.6096e-08  1.2062e-03  1.7823e-07  4.2976e-08  2.1389e-08  0:00:10   48
  1953  1.7030e-07  2.5750e-08  5.7226e-08  1.1494e-03  1.7024e-07  4.2571e-08  2.1375e-08  0:00:08   47
  1954  1.6215e-07  2.5163e-08  5.8255e-08  1.1009e-03  1.6209e-07  4.2181e-08  2.1351e-08  0:00:06   46
  1955  1.5388e-07  2.4748e-08  5.9179e-08  1.0618e-03  1.5383e-07  4.1800e-08  2.1322e-08  0:00:05   45
  1956  1.4554e-07  2.4510e-08  5.9993e-08  1.0331e-03  1.4549e-07  4.1432e-08  2.1280e-08  0:00:04   44
  1957  1.3719e-07  2.4447e-08  6.0694e-08  1.0155e-03  1.3714e-07  4.1085e-08  2.1237e-08  0:00:03   43
  1958  1.2886e-07  2.4555e-08  6.1280e-08  1.0092e-03  1.2881e-07  4.0741e-08  2.1193e-08  0:00:02   42

  iter  continuity  x-velocity  y-velocity  z-velocity      energy           k       omega     time/iter
  1959  1.2064e-07  2.4823e-08  6.1749e-08  1.0140e-03  1.2059e-07  4.0414e-08  2.1138e-08  0:00:02   41
  1960  1.1259e-07  2.5236e-08  6.2099e-08  1.0293e-03  1.1255e-07  4.0078e-08  2.1079e-08  0:00:01   40
  1961  1.0482e-07  2.5776e-08  6.2330e-08  1.0542e-03  1.0477e-07  3.9728e-08  2.1009e-08  0:00:01   39
  1962  9.7411e-08  2.6426e-08  6.2442e-08  1.0872e-03  9.7368e-08  3.9358e-08  2.0922e-08  0:00:01   38
  1963  9.0506e-08  2.7165e-08  6.2435e-08  1.1271e-03  9.0465e-08  3.9007e-08  2.0830e-08  0:00:01   37
  1964  8.4252e-08  2.7975e-08  6.2310e-08  1.1724e-03  8.4211e-08  3.8678e-08  2.0731e-08  0:00:08   36
  1965  7.8816e-08  2.8838e-08  6.2067e-08  1.2218e-03  7.8777e-08  3.8383e-08  2.0628e-08  0:00:06   35
  1966  7.4383e-08  2.9736e-08  6.1709e-08  1.2743e-03  7.4345e-08  3.8122e-08  2.0518e-08  0:00:05   34
  1967  7.1129e-08  3.0656e-08  6.1238e-08  1.3286e-03  7.1093e-08  3.7910e-08  2.0403e-08  0:00:04   33
  1968  6.9197e-08  3.1583e-08  6.0656e-08  1.3839e-03  6.9161e-08  3.7715e-08  2.0281e-08  0:00:03   32
  1969  6.8660e-08  3.2505e-08  5.9966e-08  1.4394e-03  6.8625e-08  3.7550e-08  2.0152e-08  0:00:02   31

  iter  continuity  x-velocity  y-velocity  z-velocity      energy           k       omega     time/iter
  1970  6.9501e-08  3.3413e-08  5.9171e-08  1.4945e-03  6.9468e-08  3.7422e-08  2.0005e-08  0:00:02   30
  1971  7.1614e-08  3.4295e-08  5.8275e-08  1.5485e-03  7.1582e-08  3.7321e-08  1.9850e-08  0:00:01   29
  1972  7.4824e-08  3.5145e-08  5.7282e-08  1.6009e-03  7.4792e-08  3.7247e-08  1.9695e-08  0:00:01   28
  1973  7.8926e-08  3.5955e-08  5.6197e-08  1.6513e-03  7.8896e-08  3.7169e-08  1.9529e-08  0:00:01   27
  1974  8.3716e-08  3.6720e-08  5.5023e-08  1.6994e-03  8.3686e-08  3.7067e-08  1.9350e-08  0:00:01   26
  1975  8.9006e-08  3.7433e-08  5.3766e-08  1.7449e-03  8.8976e-08  3.6945e-08  1.9165e-08  0:00:00   25
  1976  9.4636e-08  3.8090e-08  5.2432e-08  1.7874e-03  9.4606e-08  3.6801e-08  1.8965e-08  0:00:00   24
  1977  1.0047e-07  3.8688e-08  5.1026e-08  1.8268e-03  1.0044e-07  3.6640e-08  1.8751e-08  0:00:05   23
  1978  1.0641e-07  3.9222e-08  4.9556e-08  1.8629e-03  1.0638e-07  3.6456e-08  1.8528e-08  0:00:04   22
  1979  1.1236e-07  3.9691e-08  4.8027e-08  1.8954e-03  1.1233e-07  3.6254e-08  1.8294e-08  0:00:03   21
  1980  1.1825e-07  4.0092e-08  4.6446e-08  1.9243e-03  1.1822e-07  3.6027e-08  1.8049e-08  0:00:02   20

  iter  continuity  x-velocity  y-velocity  z-velocity      energy           k       omega     time/iter
  1981  1.2402e-07  4.0423e-08  4.4823e-08  1.9495e-03  1.2399e-07  3.5793e-08  1.7807e-08  0:00:02   19
  1982  1.2963e-07  4.0683e-08  4.3165e-08  1.9709e-03  1.2959e-07  3.5569e-08  1.7559e-08  0:00:01   18
  1983  1.3503e-07  4.0871e-08  4.1481e-08  1.9884e-03  1.3499e-07  3.5375e-08  1.7318e-08  0:00:01   17
  1984  1.4019e-07  4.0986e-08  3.9781e-08  2.0019e-03  1.4015e-07  3.5251e-08  1.7091e-08  0:00:01   16
  1985  1.4508e-07  4.1028e-08  3.8077e-08  2.0115e-03  1.4505e-07  3.5155e-08  1.6881e-08  0:00:01   15
  1986  1.4969e-07  4.0998e-08  3.6380e-08  2.0171e-03  1.4965e-07  3.5067e-08  1.6676e-08  0:00:00   14
  1987  1.5398e-07  4.0895e-08  3.4702e-08  2.0188e-03  1.5394e-07  3.4985e-08  1.6464e-08  0:00:00   13
  1988  1.5795e-07  4.0720e-08  3.3059e-08  2.0165e-03  1.5791e-07  3.4921e-08  1.6262e-08  0:00:00   12
  1989  1.6157e-07  4.0475e-08  3.1467e-08  2.0103e-03  1.6153e-07  3.4848e-08  1.6062e-08  0:00:02   11
  1990  1.6485e-07  4.0161e-08  2.9942e-08  2.0003e-03  1.6480e-07  3.4755e-08  1.5870e-08  0:00:02   10
  1991  1.6776e-07  3.9779e-08  2.8504e-08  1.9864e-03  1.6772e-07  3.4631e-08  1.5687e-08  0:00:01    9

  iter  continuity  x-velocity  y-velocity  z-velocity      energy           k       omega     time/iter
  1992  1.7030e-07  3.9331e-08  2.7173e-08  1.9688e-03  1.7026e-07  3.4487e-08  1.5509e-08  0:00:01    8
  1993  1.7247e-07  3.8819e-08  2.5972e-08  1.9476e-03  1.7242e-07  3.4332e-08  1.5348e-08  0:00:01    7
  1994  1.7426e-07  3.8245e-08  2.4922e-08  1.9229e-03  1.7421e-07  3.4179e-08  1.5196e-08  0:00:00    6
  1995  1.7566e-07  3.7612e-08  2.4045e-08  1.8947e-03  1.7562e-07  3.4028e-08  1.5064e-08  0:00:00    5
  1996  1.7669e-07  3.6924e-08  2.3359e-08  1.8632e-03  1.7664e-07  3.3877e-08  1.4940e-08  0:00:00    4
  1997  1.7733e-07  3.6182e-08  2.2880e-08  1.8285e-03  1.7728e-07  3.3718e-08  1.4828e-08  0:00:00    3
  1998  1.7759e-07  3.5391e-08  2.2615e-08  1.7909e-03  1.7754e-07  3.3543e-08  1.4730e-08  0:00:00    2
  1999  1.7747e-07  3.4554e-08  2.2565e-08  1.7503e-03  1.7742e-07  3.3346e-08  1.4631e-08  0:00:00    1
  2000  1.7697e-07  3.3675e-08  2.2723e-08  1.7071e-03  1.7693e-07  3.3116e-08  1.4538e-08  0:00:00    0

> 
adjoint/                parallel/               server/
define/                 parametric-study/       solve/
display/                plot/                   surface/
exit                    preferences/            turbo-workflow/
file/                   print-license-usage     views/
mesh/                   report/

> /file/write-case-data project1
Fast-loading "C:\PROGRA~1\ANSYSI~1\v231\fluent\fluent23.1.0\\addons\afd\lib\hdfio.bin"
Done.

Writing to Engs-30669:"C:\Users\kebl7595\Desktop\CFD\Runs\Flap\Shallower Aspect Ratio\four to five\project1.cas.h5" in NODE0 mode and compression level 1 ...
       18972 cells,     1 zone  ...
       63816 faces,     7 zones ...
       26064 nodes,     1 zone  ...
  Done.
Done.

Writing to Engs-30669:"C:\Users\kebl7595\Desktop\CFD\Runs\Flap\Shallower Aspect Ratio\four to five\project1.dat.h5" in NODE0 mode and compression level 1 ...
  Writing results.
Done.

> /file/export/ascii "./surface.dat" wing () no pressure mach-number quit no

Writing "./surface.dat"...

Writing information to ascii file ...
Done.


> /report/forces/wall-forces y -0. -1 0 y "Lift"

> /report/forces/wall-forces y 1 -0. 0 y "Drag"

> /exit

Posting ANSYS Product Improvement Program performance data 
Done.
Auto-Transcript Stop Time:  11:27:43, 22 May 2024 GMT Daylight Time 
Total Transcript Time: 3 Minute 58 Second.
