Auto-Transcript Start Time:  14:26:52, 20 May 2024 GMT Daylight Time 
Current Directory: "C:\Users\kebl7595\Desktop\CFD\Runs\Actual Data\0 degree normal domain"

              Welcome to ANSYS Fluent 2023 R1

              Copyright 1987-2023 ANSYS, Inc. All Rights Reserved.
              Unauthorized use, distribution or duplication is prohibited.
              This product is subject to U.S. laws governing export and re-export.
              For full Legal Notice, see documentation.

Build Time: Nov 28 2022 09:52:02 EST  Build Id: 10208  
 
Connected License Server List:	1055@ansyslic.eng.ox.ac.uk

*********************************************
Info: Your license enables 4-way parallel execution.
For faster simulations, please start the application with the appropriate parallel options.
*********************************************


     --------------------------------------------------------------
     This is an academic version of ANSYS FLUENT. Usage of this product
     license is limited to the terms and conditions specified in your ANSYS
     license form, additional terms section.
     --------------------------------------------------------------
Host spawning Node 0 on machine "Engs-30669" (win64).

------------------------------------------------------------------------------------
ID    Hostname    Core  O.S.         PID    Vendor                                 
------------------------------------------------------------------------------------
n0    Engs-30669  1/32  Windows-x64  28456  13th Gen Intel(R) Core(TM) i9-13900    
host  Engs-30669        Windows-x64  45240  13th Gen Intel(R) Core(TM) i9-13900    

MPI Option Selected: intel
------------------------------------------------------------------------------------

Cleanup script file is C:\\Users\\kebl7595\\Desktop\\CFD\\Runs\\Actual Data\\0 degree normal domain\\cleanup-fluent-Engs-30669-45240.bat
QA Service Message :
QA Services Agreement Enabled. This application is included in the scope of an ANSYS QA Services Agreement.
Posting ANSYS Product Improvement Program startup data
Done.

Reading journal file C:/Users/kebl7595/Desktop/CFD/Runs/Actual Data/0 degree normal domain/project1.jou...

> /file/set-batch-options no no no 

> 
define/                 parametric-study/       solve/
display/                plot/                   surface/
exit                    preferences/            switch-to-meshing-mode
file/                   print-license-usage     turbo-workflow/
mesh/                   report/                 views/
parallel/               server/

> /file/import/cgns/mesh  "./project1.cgns"
Engs-30669 has other FLUENT parallel processes running.                       Process affinity not being set.

Importing "./project1.cgns"

Opening library "C:\\PROGRA~1\\ANSYSI~1\\v231\\fluent\\fluent23.1.0\\vki\\win64\\devtools4.4.6.dll"... done.

Read    17864 nodes
   12996 hexahedral cells, zone  1
    9462 quadrilateral wall faces, zone  2.
   33972 quadrilateral interior faces, zone  3.
     282 quadrilateral interface faces, zone  4.
       6 quadrilateral wall faces, zone  5.

Building...
     mesh
     materials,
     interface,
     domains,
     zones,
	default_exterior-1
	interface-default_subface
	default_interior-1
	default_subface
	default
     parallel,
The automatic selection for flux type has changed to Rhie-Chow: momentum based.

Done.


> 
adjoint/                parallel/               server/
define/                 parametric-study/       solve/
display/                plot/                   surface/
exit                    preferences/            turbo-workflow/
file/                   print-license-usage     views/
mesh/                   report/

> /define/models/solver/density-based-implicit yes

> 
adjoint/                parallel/               server/
define/                 parametric-study/       solve/
display/                plot/                   surface/
exit                    preferences/            turbo-workflow/
file/                   print-license-usage     views/
mesh/                   report/

> /define/models/energy? yes yes invalid command [yes]
yes

> /define/models/viscous/inviscid yes

> 
adjoint/                parallel/               server/
define/                 parametric-study/       solve/
display/                plot/                   surface/
exit                    preferences/            turbo-workflow/
file/                   print-license-usage     views/
mesh/                   report/

> /define/materials/change-create air air air is a fluid
yes 
Density
ideal-gas no data required.

no no no no 

> 
adjoint/                parallel/               server/
define/                 parametric-study/       solve/
display/                plot/                   surface/
exit                    preferences/            turbo-workflow/
file/                   print-license-usage     views/
mesh/                   report/

> /mesh/modify-zones/sep-face-zone-angle 2 90 yes

 4332 faces in contiguous region 0
 228 faces in contiguous region 1
 342 faces in contiguous region 2
 4332 faces in contiguous region 3
 228 faces in contiguous region 4
 Separates zone 2 into 5 zone(s).
Updating new zone information...
   created new zone default_subface:010 from default_subface
   created new zone default_subface:009 from default_subface
   created new zone default_subface:008 from default_subface
   created new zone default_subface:007 from default_subface
done.

> 
adjoint/                parallel/               server/
define/                 parametric-study/       solve/
display/                plot/                   surface/
exit                    preferences/            turbo-workflow/
file/                   print-license-usage     views/
mesh/                   report/

> /define/boundary-conditions/zone-name  5   te

> /define/boundary-conditions/zone-name  7 wing

> /define/boundary-conditions/zone-name  2 sym1

> /define/boundary-conditions/zone-name  9 sym2

> 
adjoint/                parallel/               server/
define/                 parametric-study/       solve/
display/                plot/                   surface/
exit                    preferences/            turbo-workflow/
file/                   print-license-usage     views/
mesh/                   report/

> /define/boundary-conditions/zone-name  8 far1

> /define/boundary-conditions/zone-name 10 far2

> 
adjoint/                parallel/               server/
define/                 parametric-study/       solve/
display/                plot/                   surface/
exit                    preferences/            turbo-workflow/
file/                   print-license-usage     views/
mesh/                   report/

> /define/boundary-conditions/zone-type  8 pressure-far-field

> /define/boundary-conditions/zone-type 10 pressure-far-field

> /define/boundary-conditions/zone-type  2 symmetry

> /define/boundary-conditions/zone-type  9 symmetry

> 
adjoint/                parallel/               server/
define/                 parametric-study/       solve/
display/                plot/                   surface/
exit                    preferences/            turbo-workflow/
file/                   print-license-usage     views/
mesh/                   report/

> /define/boundary-conditions/pressure-far-field (far2 far1)
far1 no 0 no 0.1 no 300 yes no 0.984808 no 0.173648 no 0

> /define/boundary-conditions/pressure-far-field (far2 far1)
far2 no 0 no 0.1 no 300 yes no 0.984808 no 0.173648 no 0

> 
adjoint/                parallel/               server/
define/                 parametric-study/       solve/
display/                plot/                   surface/
exit                    preferences/            turbo-workflow/
file/                   print-license-usage     views/
mesh/                   report/

> /solve/initialize/compute-defaults/pressure-far-field (far2 far1)
far1

> /solve/initialize/initialize-flow

> 
adjoint/                parallel/               server/
define/                 parametric-study/       solve/
display/                plot/                   surface/
exit                    preferences/            turbo-workflow/
file/                   print-license-usage     views/
mesh/                   report/

> /solve/monitors/residual/convergence-criteria 1.e-9 1.e-9 1.e-9 1.e-9 1.e-9

> /solve/iterate 2000

  iter  continuity  x-velocity  y-velocity  z-velocity      energy     time/iter
     1  1.0000e+00  1.0000e+00  1.0000e+00  0.0000e+00  1.0000e+00  0:00:00 1999
     2  5.3959e-01  5.3153e-01  3.6164e-01  1.0000e+00  5.4024e-01  0:00:00 1998
     3  2.8299e-01  2.2289e-01  2.4985e-01  8.6704e-01  2.8324e-01  0:00:00 1997
     4  1.7701e-01  1.6710e-01  1.6182e-01  5.7447e-01  1.7707e-01  0:00:00 1996
     5  1.3631e-01  1.2204e-01  1.0490e-01  5.9004e-01  1.3640e-01  0:00:00 1995
     6  1.1365e-01  8.5269e-02  7.2841e-02  7.2761e-01  1.1379e-01  0:00:00 1994
     7  9.7707e-02  6.0679e-02  5.3955e-02  7.4602e-01  9.7868e-02  0:00:00 1993
     8  8.5627e-02  4.5906e-02  4.1547e-02  6.7647e-01  8.5793e-02  0:00:00 1992
     9  7.6305e-02  3.7350e-02  3.2945e-02  5.9999e-01  7.6467e-02  0:33:11 1991
    10  6.9411e-02  3.2710e-02  2.6919e-02  5.5688e-01  6.9565e-02  0:26:32 1990
    11  6.4236e-02  3.0551e-02  2.2644e-02  5.2221e-01  6.4378e-02  0:21:13 1989

  iter  continuity  x-velocity  y-velocity  z-velocity      energy     time/iter
    12  6.0749e-02  2.9882e-02  1.9547e-02  4.9949e-01  6.0880e-02  0:16:58 1988
    13  5.8620e-02  3.0069e-02  1.7316e-02  4.9307e-01  5.8741e-02  0:13:34 1987
    14  5.7682e-02  3.0836e-02  1.5776e-02  5.0246e-01  5.7795e-02  0:10:51 1986
    15  5.7819e-02  3.2004e-02  1.4667e-02  5.2284e-01  5.7924e-02  0:08:40 1985
    16  5.8754e-02  3.3427e-02  1.3961e-02  5.4630e-01  5.8852e-02  0:06:56 1984
    17  6.0084e-02  3.4931e-02  1.3663e-02  5.7505e-01  6.0175e-02  0:05:33 1983
    18  6.1536e-02  3.6382e-02  1.3657e-02  6.0598e-01  6.1618e-02  0:04:26 1982
    19  6.2953e-02  3.7743e-02  1.3702e-02  6.4091e-01  6.3024e-02  0:03:33 1981
    20  6.4434e-02  3.8914e-02  1.3960e-02  6.8047e-01  6.4494e-02  0:09:26 1980
    21  6.5910e-02  3.9846e-02  1.4260e-02  7.2369e-01  6.5958e-02  0:07:33 1979
    22  6.7308e-02  4.0422e-02  1.4547e-02  7.6622e-01  6.7343e-02  0:06:02 1978

  iter  continuity  x-velocity  y-velocity  z-velocity      energy     time/iter
    23  6.8269e-02  4.0659e-02  1.4855e-02  8.0395e-01  6.8290e-02  0:04:49 1977
    24  6.8581e-02  4.0506e-02  1.5319e-02  8.3377e-01  6.8587e-02  0:03:51 1976
    25  6.8094e-02  3.9960e-02  1.5467e-02  8.5183e-01  6.8085e-02  0:03:05 1975
    26  6.7253e-02  3.9223e-02  1.5573e-02  8.5572e-01  6.7228e-02  0:02:28 1974
    27  6.6093e-02  3.8276e-02  1.5405e-02  8.4271e-01  6.6054e-02  0:01:58 1973
    28  6.4436e-02  3.7085e-02  1.5105e-02  8.1122e-01  6.4384e-02  0:01:35 1972
    29  6.2104e-02  3.5738e-02  1.4744e-02  7.6775e-01  6.2039e-02  0:01:16 1971
    30  5.8997e-02  3.4211e-02  1.4099e-02  7.1452e-01  5.8921e-02  0:01:00 1970
    31  5.5646e-02  3.2893e-02  1.3607e-02  6.5261e-01  5.5560e-02  0:00:48 1969
    32  5.2067e-02  3.1693e-02  1.3091e-02  5.8971e-01  5.1974e-02  0:00:39 1968
    33  4.8147e-02  3.0605e-02  1.2737e-02  5.3643e-01  4.8047e-02  0:00:31 1967

  iter  continuity  x-velocity  y-velocity  z-velocity      energy     time/iter
    34  4.3869e-02  2.9662e-02  1.2625e-02  5.0555e-01  4.3765e-02  0:06:58 1966
    35  3.9530e-02  2.9057e-02  1.2850e-02  5.0145e-01  3.9423e-02  0:05:34 1965
    36  3.5188e-02  2.8887e-02  1.3482e-02  5.2003e-01  3.5079e-02  0:04:27 1964
    37  3.0859e-02  2.9047e-02  1.4389e-02  5.5921e-01  3.0750e-02  0:03:34 1963
    38  2.6600e-02  2.9479e-02  1.5497e-02  6.1261e-01  2.6491e-02  0:02:51 1962
    39  2.2569e-02  3.0153e-02  1.6699e-02  6.7237e-01  2.2461e-02  0:02:17 1961
    40  1.8844e-02  3.1086e-02  1.7998e-02  7.2881e-01  1.8738e-02  0:01:49 1960
    41  1.5401e-02  3.2182e-02  1.9260e-02  7.7610e-01  1.5297e-02  0:01:27 1959
    42  1.2495e-02  3.3362e-02  2.0404e-02  8.1484e-01  1.2394e-02  0:01:10 1958
    43  1.0315e-02  3.4535e-02  2.1406e-02  8.4426e-01  1.0222e-02  0:00:56 1957
    44  9.1771e-03  3.5653e-02  2.2243e-02  8.6132e-01  9.1008e-03  0:00:45 1956

  iter  continuity  x-velocity  y-velocity  z-velocity      energy     time/iter
    45  9.1213e-03  3.6671e-02  2.2917e-02  8.6377e-01  9.0670e-03  0:00:36 1955
    46  9.8558e-03  3.7574e-02  2.3413e-02  8.5167e-01  9.8221e-03  0:00:29 1954
    47  1.1167e-02  3.8330e-02  2.3727e-02  8.2811e-01  1.1149e-02  0:00:23 1953
    48  1.2792e-02  3.8935e-02  2.3870e-02  7.9536e-01  1.2783e-02  0:00:18 1952
    49  1.4383e-02  3.9396e-02  2.3852e-02  7.5237e-01  1.4381e-02  0:06:45 1951
    50  1.5847e-02  3.9718e-02  2.3685e-02  7.0027e-01  1.5847e-02  0:05:24 1950
    51  1.7147e-02  3.9896e-02  2.3385e-02  6.4251e-01  1.7150e-02  0:04:19 1949
    52  1.8248e-02  3.9925e-02  2.2967e-02  5.8272e-01  1.8252e-02  0:03:27 1948
    53  1.9174e-02  3.9796e-02  2.2443e-02  5.2419e-01  1.9179e-02  0:02:45 1947
    54  1.9946e-02  3.9533e-02  2.1827e-02  4.7383e-01  1.9952e-02  0:02:12 1946
    55  2.0578e-02  3.9123e-02  2.1128e-02  4.3678e-01  2.0584e-02  0:01:46 1945

  iter  continuity  x-velocity  y-velocity  z-velocity      energy     time/iter
    56  2.1076e-02  3.8617e-02  2.0348e-02  4.1287e-01  2.1081e-02  0:01:25 1944
    57  2.1443e-02  3.7976e-02  1.9500e-02  4.0608e-01  2.1449e-02  0:01:08 1943
    58  2.1677e-02  3.7077e-02  1.8633e-02  4.1557e-01  2.1683e-02  0:00:54 1942
    59  2.1785e-02  3.6099e-02  1.7710e-02  4.3739e-01  2.1791e-02  0:00:43 1941
    60  2.1765e-02  3.5055e-02  1.6716e-02  4.6836e-01  2.1770e-02  0:00:35 1940
    61  2.1620e-02  3.3929e-02  1.5690e-02  5.0324e-01  2.1624e-02  0:00:28 1939
    62  2.1347e-02  3.2695e-02  1.4654e-02  5.3730e-01  2.1352e-02  0:00:22 1938
    63  2.0944e-02  3.1359e-02  1.3622e-02  5.6630e-01  2.0948e-02  0:00:18 1937
    64  2.0388e-02  2.9942e-02  1.2603e-02  5.8842e-01  2.0391e-02  0:06:41 1936
    65  1.9676e-02  2.8440e-02  1.1605e-02  6.0473e-01  1.9679e-02  0:05:21 1935
    66  1.8813e-02  2.6877e-02  1.0621e-02  6.1588e-01  1.8816e-02  0:04:17 1934

  iter  continuity  x-velocity  y-velocity  z-velocity      energy     time/iter
    67  1.7818e-02  2.5334e-02  9.6676e-03  6.1825e-01  1.7820e-02  0:03:25 1933
    68  1.6674e-02  2.3855e-02  8.7980e-03  6.1212e-01  1.6675e-02  0:02:44 1932
    69  1.5406e-02  2.2658e-02  7.9497e-03  5.9960e-01  1.5408e-02  0:02:11 1931
    70  1.4024e-02  2.1520e-02  7.1906e-03  5.8124e-01  1.4025e-02  0:01:45 1930
    71  1.2541e-02  2.0516e-02  6.5486e-03  5.5747e-01  1.2541e-02  0:01:24 1929
    72  1.0978e-02  1.9647e-02  6.0381e-03  5.3100e-01  1.0977e-02  0:01:07 1928
    73  9.3926e-03  1.8897e-02  5.6565e-03  5.0413e-01  9.3900e-03  0:00:54 1927
    74  7.9135e-03  1.8536e-02  5.3988e-03  4.7936e-01  7.9085e-03  0:00:43 1926
    75  6.6846e-03  1.8550e-02  5.2821e-03  4.5949e-01  6.6762e-03  0:00:34 1925
    76  5.9283e-03  1.8877e-02  5.3119e-03  4.4695e-01  5.9152e-03  0:00:27 1924
    77  5.8967e-03  1.9425e-02  5.4688e-03  4.4486e-01  5.8787e-03  0:06:47 1923

  iter  continuity  x-velocity  y-velocity  z-velocity      energy     time/iter
    78  6.6106e-03  2.0142e-02  5.7104e-03  4.5248e-01  6.5888e-03  0:05:25 1922
    79  7.8432e-03  2.0961e-02  6.0045e-03  4.6695e-01  7.8184e-03  0:04:20 1921
    80  9.3501e-03  2.1837e-02  6.3116e-03  4.8913e-01  9.3223e-03  0:03:28 1920
    81  1.0967e-02  2.2713e-02  6.6097e-03  5.1759e-01  1.0936e-02  0:02:46 1919
    82  1.2598e-02  2.3535e-02  6.8830e-03  5.4442e-01  1.2562e-02  0:02:13 1918
    83  1.4179e-02  2.4255e-02  7.1206e-03  5.6788e-01  1.4140e-02  0:01:46 1917
    84  1.5667e-02  2.4846e-02  7.3124e-03  5.8514e-01  1.5622e-02  0:01:25 1916
    85  1.7027e-02  2.5292e-02  7.4509e-03  5.9451e-01  1.6976e-02  0:01:08 1915
    86  1.8226e-02  2.5575e-02  7.5307e-03  5.9604e-01  1.8169e-02  0:00:54 1914
    87  1.9288e-02  2.5682e-02  7.5604e-03  5.9000e-01  1.9224e-02  0:00:43 1913
    88  2.0197e-02  2.5625e-02  7.5519e-03  5.7616e-01  2.0126e-02  0:00:35 1912

  iter  continuity  x-velocity  y-velocity  z-velocity      energy     time/iter
    89  2.0923e-02  2.5382e-02  7.5166e-03  5.5316e-01  2.0845e-02  0:00:28 1911
    90  2.1453e-02  2.4948e-02  7.4818e-03  5.2282e-01  2.1368e-02  0:06:44 1910
    91  2.1795e-02  2.4342e-02  7.4565e-03  4.8621e-01  2.1702e-02  0:05:23 1909
    92  2.1963e-02  2.3600e-02  7.4669e-03  4.4662e-01  2.1863e-02  0:04:18 1908
    93  2.1969e-02  2.2751e-02  7.5598e-03  4.0341e-01  2.1861e-02  0:03:27 1907
    94  2.1788e-02  2.1814e-02  7.7766e-03  3.6155e-01  2.1674e-02  0:02:45 1906
    95  2.1427e-02  2.0821e-02  8.1197e-03  3.2368e-01  2.1307e-02  0:02:12 1905
    96  2.0889e-02  1.9791e-02  8.6044e-03  2.9704e-01  2.0763e-02  0:01:46 1904
    97  2.0182e-02  1.8789e-02  9.2161e-03  2.8739e-01  2.0050e-02  0:01:24 1903
    98  1.9324e-02  1.7913e-02  9.9298e-03  2.9668e-01  1.9187e-02  0:01:08 1902
    99  1.8326e-02  1.7240e-02  1.0728e-02  3.2335e-01  1.8184e-02  0:00:54 1901

  iter  continuity  x-velocity  y-velocity  z-velocity      energy     time/iter
   100  1.7202e-02  1.6821e-02  1.1597e-02  3.6281e-01  1.7056e-02  0:00:43 1900
   101  1.6014e-02  1.6720e-02  1.2499e-02  4.0890e-01  1.5865e-02  0:00:35 1899
   102  1.4784e-02  1.6972e-02  1.3453e-02  4.5569e-01  1.4634e-02  0:00:28 1898
   103  1.3492e-02  1.7501e-02  1.4416e-02  5.0094e-01  1.3340e-02  0:00:22 1897
   104  1.2161e-02  1.8304e-02  1.5354e-02  5.4247e-01  1.2008e-02  0:00:18 1896
   105  1.0816e-02  1.9371e-02  1.6248e-02  5.7862e-01  1.0663e-02  0:06:33 1895
   106  9.4841e-03  2.0643e-02  1.7078e-02  6.0883e-01  9.3325e-03  0:05:14 1894
   107  8.1839e-03  2.1866e-02  1.7815e-02  6.3157e-01  8.0344e-03  0:04:11 1893
   108  6.9505e-03  2.3269e-02  1.8448e-02  6.4446e-01  6.8045e-03  0:03:21 1892
   109  5.7860e-03  2.4619e-02  1.8968e-02  6.4774e-01  5.6452e-03  0:02:41 1891
   110  4.7475e-03  2.5964e-02  1.9365e-02  6.4429e-01  4.6155e-03  0:02:08 1890

  iter  continuity  x-velocity  y-velocity  z-velocity      energy     time/iter
   111  3.9142e-03  2.7258e-02  1.9631e-02  6.3090e-01  3.7979e-03  0:01:43 1889
   112  3.3918e-03  2.8380e-02  1.9767e-02  6.0962e-01  3.3029e-03  0:01:22 1888
   113  3.2844e-03  2.9427e-02  1.9765e-02  5.8087e-01  3.2328e-03  0:01:06 1887
   114  3.5669e-03  3.0361e-02  1.9630e-02  5.4445e-01  3.5501e-03  0:00:53 1886
   115  4.1015e-03  3.1154e-02  1.9372e-02  5.0222e-01  4.1081e-03  0:00:42 1885
   116  4.7523e-03  3.1792e-02  1.9002e-02  4.5526e-01  4.7719e-03  0:00:34 1884
   117  5.4385e-03  3.2264e-02  1.8529e-02  4.0462e-01  5.4642e-03  0:00:27 1883
   118  6.1082e-03  3.2574e-02  1.7960e-02  3.5233e-01  6.1357e-03  0:00:21 1882
   119  6.7342e-03  3.2726e-02  1.7305e-02  2.9901e-01  6.7609e-03  0:00:17 1881
   120  7.2997e-03  3.2742e-02  1.6576e-02  2.4758e-01  7.3239e-03  0:06:30 1880
   121  7.7952e-03  3.2593e-02  1.5797e-02  2.0227e-01  7.8160e-03  0:05:12 1879

  iter  continuity  x-velocity  y-velocity  z-velocity      energy     time/iter
   122  8.2139e-03  3.2297e-02  1.4964e-02  1.6793e-01  8.2307e-03  0:04:09 1878
   123  8.5458e-03  3.1682e-02  1.4105e-02  1.5099e-01  8.5580e-03  0:03:19 1877
   124  8.7856e-03  3.0949e-02  1.3195e-02  1.5712e-01  8.7931e-03  0:02:39 1876
   125  8.9361e-03  3.0132e-02  1.2248e-02  1.8343e-01  8.9389e-03  0:02:07 1875
   126  8.9942e-03  2.9216e-02  1.1293e-02  2.1980e-01  8.9923e-03  0:01:42 1874
   127  8.9603e-03  2.8229e-02  1.0349e-02  2.6063e-01  8.9539e-03  0:01:21 1873
   128  8.8353e-03  2.7169e-02  9.4434e-03  3.0266e-01  8.8247e-03  0:01:05 1872
   129  8.6228e-03  2.6010e-02  8.6206e-03  3.4278e-01  8.6082e-03  0:00:52 1871
   130  8.3305e-03  2.4805e-02  7.8944e-03  3.8053e-01  8.3121e-03  0:00:42 1870
   131  7.9669e-03  2.3588e-02  7.2806e-03  4.1538e-01  7.9450e-03  0:00:33 1869
   132  7.5385e-03  2.2392e-02  6.7949e-03  4.4660e-01  7.5133e-03  0:00:27 1868

  iter  continuity  x-velocity  y-velocity  z-velocity      energy     time/iter
   133  7.0518e-03  2.1262e-02  6.4407e-03  4.7401e-01  7.0238e-03  0:06:35 1867
   134  6.5156e-03  2.0229e-02  6.2298e-03  4.9703e-01  6.4851e-03  0:05:16 1866
   135  5.9393e-03  1.9285e-02  6.1578e-03  5.1507e-01  5.9068e-03  0:04:12 1865
   136  5.3298e-03  1.8590e-02  6.1670e-03  5.3107e-01  5.2958e-03  0:03:22 1864
   137  4.7172e-03  1.8024e-02  6.3348e-03  5.4344e-01  4.6819e-03  0:02:41 1863
   138  4.0905e-03  1.7328e-02  6.5784e-03  5.5112e-01  4.0541e-03  0:02:09 1862
   139  3.4772e-03  1.6838e-02  6.8132e-03  5.5538e-01  3.4401e-03  0:01:43 1861
   140  2.8980e-03  1.6457e-02  7.0418e-03  5.5715e-01  2.8609e-03  0:01:22 1860
   141  2.3964e-03  1.6187e-02  7.2510e-03  5.5470e-01  2.3606e-03  0:01:06 1859
   142  2.0252e-03  1.6058e-02  7.4088e-03  5.4881e-01  1.9940e-03  0:00:53 1858
   143  1.8646e-03  1.6030e-02  7.5356e-03  5.4011e-01  1.8424e-03  0:00:42 1857

  iter  continuity  x-velocity  y-velocity  z-velocity      energy     time/iter
   144  1.9429e-03  1.6040e-02  7.6205e-03  5.2780e-01  1.9316e-03  0:00:34 1856
   145  2.2048e-03  1.6087e-02  7.6577e-03  5.1301e-01  2.2022e-03  0:00:27 1855
   146  2.5718e-03  1.6152e-02  7.6397e-03  4.9526e-01  2.5745e-03  0:06:32 1854
   147  2.9754e-03  1.6212e-02  7.5614e-03  4.7522e-01  2.9808e-03  0:05:14 1853
   148  3.3786e-03  1.6305e-02  7.4255e-03  4.5357e-01  3.3852e-03  0:04:11 1852
   149  3.7693e-03  1.6431e-02  7.2492e-03  4.3055e-01  3.7759e-03  0:03:21 1851
   150  4.1259e-03  1.6486e-02  7.0352e-03  4.0566e-01  4.1320e-03  0:02:40 1850
   151  4.4323e-03  1.6451e-02  6.7827e-03  3.8094e-01  4.4373e-03  0:02:08 1849
   152  4.6816e-03  1.6342e-02  6.4920e-03  3.5616e-01  4.6852e-03  0:01:43 1848
   153  4.8775e-03  1.6176e-02  6.1670e-03  3.2897e-01  4.8797e-03  0:01:22 1847
   154  5.0211e-03  1.5961e-02  5.8139e-03  3.0063e-01  5.0217e-03  0:01:06 1846

  iter  continuity  x-velocity  y-velocity  z-velocity      energy     time/iter
   155  5.1104e-03  1.5703e-02  5.4408e-03  2.7193e-01  5.1095e-03  0:00:52 1845
   156  5.1450e-03  1.5411e-02  5.0579e-03  2.4379e-01  5.1427e-03  0:00:42 1844
   157  5.1237e-03  1.5059e-02  4.6850e-03  2.1595e-01  5.1201e-03  0:00:34 1843
   158  5.0622e-03  1.4704e-02  4.2910e-03  1.8986e-01  5.0573e-03  0:00:27 1842
   159  4.9629e-03  1.4350e-02  3.9099e-03  1.6512e-01  4.9569e-03  0:00:21 1841
   160  4.8341e-03  1.3995e-02  3.5630e-03  1.4410e-01  4.8272e-03  0:06:25 1840
   161  4.6907e-03  1.3656e-02  3.2559e-03  1.3104e-01  4.6829e-03  0:05:08 1839
   162  4.5287e-03  1.3336e-02  2.9893e-03  1.2744e-01  4.5202e-03  0:04:06 1838
   163  4.3391e-03  1.3041e-02  2.7702e-03  1.3416e-01  4.3301e-03  0:03:17 1837
   164  4.1440e-03  1.2787e-02  2.6135e-03  1.4875e-01  4.1347e-03  0:02:37 1836
   165  3.9592e-03  1.2574e-02  2.5175e-03  1.6765e-01  3.9499e-03  0:02:06 1835

  iter  continuity  x-velocity  y-velocity  z-velocity      energy     time/iter
   166  3.7932e-03  1.2404e-02  2.4800e-03  1.8845e-01  3.7841e-03  0:01:41 1834
   167  3.6487e-03  1.2265e-02  2.5275e-03  2.0946e-01  3.6400e-03  0:01:20 1833
   168  3.5494e-03  1.2203e-02  2.5798e-03  2.3033e-01  3.5412e-03  0:01:04 1832
   169  3.4947e-03  1.2192e-02  2.6317e-03  2.5008e-01  3.4872e-03  0:00:51 1831
   170  3.4989e-03  1.2216e-02  2.7075e-03  2.6839e-01  3.4922e-03  0:00:41 1830
   171  3.5609e-03  1.2262e-02  2.7958e-03  2.8454e-01  3.5548e-03  0:00:33 1829
   172  3.6797e-03  1.2263e-02  2.8906e-03  2.9830e-01  3.6741e-03  0:00:26 1828
   173  3.8591e-03  1.2335e-02  2.9565e-03  3.0959e-01  3.8538e-03  0:00:21 1827
   174  4.0894e-03  1.2429e-02  3.0057e-03  3.1828e-01  4.0843e-03  0:00:17 1826
   175  4.3568e-03  1.2535e-02  3.0367e-03  3.2458e-01  4.3517e-03  0:06:18 1825
   176  4.6481e-03  1.2647e-02  3.0508e-03  3.2813e-01  4.6428e-03  0:05:03 1824

  iter  continuity  x-velocity  y-velocity  z-velocity      energy     time/iter
   177  4.9364e-03  1.2755e-02  3.0488e-03  3.2765e-01  4.9307e-03  0:04:02 1823
   178  5.2089e-03  1.2860e-02  3.0345e-03  3.2408e-01  5.2028e-03  0:03:13 1822
   179  5.4710e-03  1.2953e-02  3.0063e-03  3.1946e-01  5.4644e-03  0:02:35 1821
   180  5.7213e-03  1.3033e-02  2.9631e-03  3.1698e-01  5.7142e-03  0:02:04 1820
   181  5.9484e-03  1.3074e-02  2.9206e-03  3.1286e-01  5.9407e-03  0:01:39 1819
   182  6.1626e-03  1.3106e-02  2.8661e-03  3.0588e-01  6.1543e-03  0:01:19 1818
   183  6.3583e-03  1.3142e-02  2.8043e-03  2.9532e-01  6.3493e-03  0:01:03 1817
   184  6.5672e-03  1.3170e-02  2.7423e-03  2.8349e-01  6.5575e-03  0:00:51 1816
   185  6.7238e-03  1.3215e-02  2.6822e-03  2.6962e-01  6.7134e-03  0:00:40 1815
   186  6.7816e-03  1.3224e-02  2.6217e-03  2.5459e-01  6.7707e-03  0:00:32 1814
   187  6.8343e-03  1.3244e-02  2.5740e-03  2.3994e-01  6.8229e-03  0:00:26 1813

  iter  continuity  x-velocity  y-velocity  z-velocity      energy     time/iter
   188  6.9084e-03  1.3241e-02  2.5261e-03  2.2548e-01  6.8965e-03  0:00:21 1812
   189  6.9721e-03  1.3249e-02  2.4926e-03  2.1027e-01  6.9596e-03  0:00:17 1811
   190  7.0291e-03  1.3236e-02  2.4563e-03  1.9481e-01  7.0160e-03  0:06:15 1810
   191  7.0684e-03  1.3237e-02  2.4447e-03  1.8032e-01  7.0548e-03  0:05:00 1809
   192  7.1443e-03  1.3200e-02  2.4389e-03  1.6947e-01  7.1303e-03  0:04:00 1808
   193  7.2373e-03  1.3221e-02  2.4605e-03  1.6194e-01  7.2226e-03  0:03:12 1807
   194  7.3894e-03  1.3242e-02  2.4988e-03  1.6010e-01  7.3741e-03  0:02:33 1806
   195  7.4177e-03  1.3093e-02  2.5444e-03  1.6302e-01  7.4019e-03  0:02:03 1805
   196  7.4167e-03  1.3099e-02  2.6092e-03  1.7018e-01  7.4007e-03  0:01:38 1804
   197  7.4084e-03  1.3171e-02  2.7017e-03  1.7846e-01  7.3921e-03  0:01:18 1803
   198  7.4034e-03  1.3124e-02  2.8133e-03  1.8683e-01  7.3867e-03  0:01:03 1802

  iter  continuity  x-velocity  y-velocity  z-velocity      energy     time/iter
   199  7.4482e-03  1.3041e-02  2.9374e-03  1.9663e-01  7.4312e-03  0:00:50 1801
   200  7.4767e-03  1.3059e-02  3.0748e-03  2.0880e-01  7.4594e-03  0:00:40 1800
   201  7.4512e-03  1.3160e-02  3.2218e-03  2.2701e-01  7.4338e-03  0:00:32 1799
   202  7.4380e-03  1.3170e-02  3.3810e-03  2.4653e-01  7.4204e-03  0:00:26 1798
   203  7.4569e-03  1.3087e-02  3.5245e-03  2.6944e-01  7.4391e-03  0:00:20 1797
   204  7.4841e-03  1.3127e-02  3.6718e-03  2.9414e-01  7.4661e-03  0:00:16 1796
   205  7.4112e-03  1.3291e-02  3.8300e-03  3.1905e-01  7.3932e-03  0:06:12 1795
   206  7.2951e-03  1.3492e-02  4.0013e-03  3.4243e-01  7.2770e-03  0:04:58 1794
   207  7.2040e-03  1.3481e-02  4.1626e-03  3.6491e-01  7.1859e-03  0:03:58 1793
   208  7.1044e-03  1.3400e-02  4.3038e-03  3.8292e-01  7.0863e-03  0:03:10 1792
   209  6.8834e-03  1.3339e-02  4.4256e-03  3.8015e-01  6.8653e-03  0:02:32 1791

  iter  continuity  x-velocity  y-velocity  z-velocity      energy     time/iter
   210  6.5732e-03  1.3302e-02  4.5270e-03  3.7231e-01  6.5554e-03  0:02:02 1790
   211  6.1278e-03  1.3250e-02  4.6153e-03  3.6175e-01  6.1104e-03  0:01:37 1789
   212  5.6425e-03  1.3145e-02  4.7008e-03  3.4855e-01  5.6255e-03  0:01:18 1788
   213  5.1649e-03  1.2973e-02  4.7737e-03  3.3243e-01  5.1482e-03  0:01:02 1787
   214  4.8316e-03  1.2770e-02  4.8449e-03  3.1525e-01  4.8151e-03  0:00:50 1786
   215  4.6488e-03  1.2565e-02  4.9045e-03  2.9574e-01  4.6321e-03  0:00:40 1785
   216  4.6023e-03  1.2331e-02  4.9464e-03  2.7711e-01  4.5855e-03  0:00:32 1784
   217  4.7085e-03  1.2066e-02  4.9644e-03  2.6233e-01  4.6914e-03  0:00:25 1783
   218  4.8132e-03  1.1791e-02  4.9711e-03  2.5275e-01  4.7959e-03  0:00:20 1782
   219  4.9657e-03  1.1574e-02  4.9667e-03  2.5176e-01  4.9481e-03  0:06:12 1781
   220  5.0032e-03  1.1398e-02  4.9714e-03  2.5053e-01  4.9852e-03  0:04:58 1780

  iter  continuity  x-velocity  y-velocity  z-velocity      energy     time/iter
   221  5.1453e-03  1.1202e-02  4.9863e-03  2.5226e-01  5.1271e-03  0:03:58 1779
   222  5.2659e-03  1.0980e-02  5.0096e-03  2.5812e-01  5.2475e-03  0:03:10 1778
   223  5.2199e-03  1.0808e-02  5.0411e-03  2.6535e-01  5.2013e-03  0:02:32 1777
   224  5.2967e-03  1.0585e-02  5.0550e-03  2.7876e-01  5.2780e-03  0:02:02 1776
   225  5.3224e-03  1.0370e-02  5.0860e-03  2.9041e-01  5.3037e-03  0:01:37 1775
   226  5.2936e-03  1.0233e-02  5.1427e-03  3.0146e-01  5.2749e-03  0:01:18 1774
   227  5.2213e-03  1.0149e-02  5.2448e-03  3.1053e-01  5.2027e-03  0:01:02 1773
   228  5.2323e-03  1.0115e-02  5.3808e-03  3.1953e-01  5.2137e-03  0:00:50 1772
   229  5.3717e-03  1.0116e-02  5.5219e-03  3.3319e-01  5.3533e-03  0:00:40 1771
   230  5.5150e-03  1.0161e-02  5.6664e-03  3.4796e-01  5.4970e-03  0:00:32 1770
   231  5.4861e-03  1.0328e-02  5.8178e-03  3.6409e-01  5.4686e-03  0:00:25 1769

  iter  continuity  x-velocity  y-velocity  z-velocity      energy     time/iter
   232  5.7136e-03  1.0663e-02  5.9615e-03  3.7732e-01  5.6970e-03  0:00:20 1768
   233  6.0335e-03  1.1132e-02  6.1070e-03  3.9029e-01  6.0177e-03  0:06:10 1767
   234  6.0519e-03  1.1656e-02  6.2779e-03  4.0057e-01  6.0366e-03  0:04:56 1766
   235  6.0352e-03  1.2228e-02  6.4731e-03  4.1040e-01  6.0205e-03  0:03:56 1765
   236  6.0990e-03  1.2824e-02  6.6661e-03  4.1361e-01  6.0849e-03  0:03:09 1764
   237  6.1694e-03  1.3332e-02  6.8281e-03  4.0895e-01  6.1559e-03  0:02:31 1763
   238  6.0718e-03  1.3802e-02  6.9601e-03  3.9558e-01  6.0591e-03  0:02:01 1762
   239  6.0447e-03  1.4383e-02  7.0583e-03  3.8129e-01  6.0328e-03  0:01:37 1761
   240  5.9264e-03  1.5010e-02  7.1242e-03  3.6725e-01  5.9154e-03  0:01:17 1760
   241  5.7235e-03  1.5509e-02  7.1419e-03  3.5599e-01  5.7135e-03  0:01:02 1759
   242  5.4997e-03  1.5989e-02  7.1389e-03  3.4779e-01  5.4906e-03  0:00:49 1758

  iter  continuity  x-velocity  y-velocity  z-velocity      energy     time/iter
   243  5.2173e-03  1.6169e-02  7.0991e-03  3.4217e-01  5.2091e-03  0:06:31 1757
   244  4.9454e-03  1.6229e-02  7.0219e-03  3.4206e-01  4.9381e-03  0:05:13 1756
   245  4.7661e-03  1.6235e-02  6.8948e-03  3.4343e-01  4.7594e-03  0:04:10 1755
   246  4.6279e-03  1.6129e-02  6.7241e-03  3.4754e-01  4.6219e-03  0:03:20 1754
   247  4.6123e-03  1.5960e-02  6.5030e-03  3.5374e-01  4.6068e-03  0:02:40 1753
   248  4.7154e-03  1.5610e-02  6.2815e-03  3.6239e-01  4.7105e-03  0:02:08 1752
   249  4.8208e-03  1.5176e-02  6.0701e-03  3.7216e-01  4.8163e-03  0:01:42 1751
   250  4.9246e-03  1.4543e-02  5.8797e-03  3.7987e-01  4.9204e-03  0:01:22 1750
   251  5.0463e-03  1.3924e-02  5.7061e-03  3.8767e-01  5.0423e-03  0:01:05 1749
   252  5.2035e-03  1.3322e-02  5.5212e-03  3.9582e-01  5.1996e-03  0:00:52 1748
   253  5.3332e-03  1.2817e-02  5.3034e-03  4.0233e-01  5.3293e-03  0:00:42 1747

  iter  continuity  x-velocity  y-velocity  z-velocity      energy     time/iter
   254  5.3667e-03  1.2446e-02  5.0516e-03  4.0711e-01  5.3629e-03  0:00:33 1746
   255  5.3965e-03  1.2211e-02  4.7828e-03  4.0928e-01  5.3925e-03  0:00:27 1745
   256  5.3498e-03  1.1940e-02  4.5014e-03  4.1009e-01  5.3457e-03  0:00:21 1744
   257  5.1395e-03  1.1698e-02  4.2363e-03  4.0747e-01  5.1353e-03  0:06:06 1743
   258  4.9195e-03  1.1493e-02  4.0125e-03  4.0332e-01  4.9151e-03  0:04:52 1742
   259  4.7500e-03  1.1249e-02  3.8377e-03  3.9887e-01  4.7453e-03  0:03:54 1741
   260  4.6670e-03  1.1017e-02  3.7056e-03  3.9495e-01  4.6618e-03  0:03:07 1740
   261  4.6079e-03  1.0787e-02  3.6178e-03  3.8976e-01  4.6023e-03  0:02:29 1739
   262  4.5920e-03  1.0617e-02  3.5687e-03  3.8461e-01  4.5859e-03  0:01:59 1738
   263  4.5833e-03  1.0474e-02  3.5234e-03  3.8544e-01  4.5767e-03  0:01:36 1737
   264  4.6100e-03  1.0404e-02  3.4927e-03  3.9656e-01  4.6030e-03  0:01:16 1736

  iter  continuity  x-velocity  y-velocity  z-velocity      energy     time/iter
   265  4.7156e-03  1.0350e-02  3.4768e-03  4.1525e-01  4.7083e-03  0:01:01 1735
   266  4.8966e-03  1.0318e-02  3.5149e-03  4.3730e-01  4.8891e-03  0:00:49 1734
   267  5.1148e-03  1.0280e-02  3.4890e-03  4.5710e-01  5.1071e-03  0:00:39 1733
   268  5.4543e-03  1.0281e-02  3.4489e-03  4.7329e-01  5.4466e-03  0:00:31 1732
   269  5.7438e-03  1.0337e-02  3.4426e-03  4.8715e-01  5.7358e-03  0:00:25 1731
   270  5.7217e-03  1.0426e-02  3.4374e-03  4.9086e-01  5.7134e-03  0:00:20 1730
   271  5.6214e-03  1.0507e-02  3.4282e-03  4.9064e-01  5.6127e-03  0:00:16 1729
   272  5.4759e-03  1.0522e-02  3.4083e-03  4.9423e-01  5.4665e-03  0:05:58 1728
   273  5.3444e-03  1.0465e-02  3.3726e-03  4.9813e-01  5.3342e-03  0:04:47 1727
   274  5.4092e-03  1.0386e-02  3.2859e-03  5.0195e-01  5.3983e-03  0:03:49 1726
   275  5.7925e-03  1.0287e-02  3.1796e-03  5.0975e-01  5.7811e-03  0:03:03 1725

  iter  continuity  x-velocity  y-velocity  z-velocity      energy     time/iter
   276  6.2855e-03  1.0139e-02  3.0766e-03  5.1917e-01  6.2738e-03  0:02:26 1724
   277  6.7092e-03  9.9539e-03  3.0040e-03  5.2015e-01  6.6971e-03  0:01:57 1723
   278  7.1683e-03  9.7608e-03  2.9727e-03  5.2612e-01  7.1560e-03  0:01:34 1722
   279  7.6896e-03  9.5930e-03  2.9767e-03  5.3515e-01  7.6771e-03  0:01:15 1721
   280  8.1332e-03  9.4414e-03  2.9971e-03  5.4258e-01  8.1207e-03  0:01:00 1720
   281  8.0552e-03  9.2915e-03  3.0550e-03  5.3201e-01  8.0422e-03  0:00:48 1719
   282  7.6323e-03  9.1908e-03  3.1412e-03  5.1265e-01  7.6187e-03  0:00:38 1718
   283  7.2312e-03  9.1803e-03  3.2562e-03  4.9858e-01  7.2171e-03  0:00:31 1717
   284  6.9492e-03  9.2862e-03  3.4163e-03  4.9016e-01  6.9347e-03  0:00:24 1716
   285  6.7095e-03  9.4836e-03  3.5817e-03  4.9230e-01  6.6949e-03  0:00:20 1715
   286  6.6457e-03  9.7172e-03  3.7554e-03  5.0777e-01  6.6314e-03  0:05:58 1714

  iter  continuity  x-velocity  y-velocity  z-velocity      energy     time/iter
   287  6.6593e-03  9.9638e-03  3.9131e-03  5.2498e-01  6.6456e-03  0:04:47 1713
   288  6.5898e-03  1.0162e-02  4.0451e-03  5.4571e-01  6.5765e-03  0:03:49 1712
   289  6.2398e-03  1.0244e-02  4.1407e-03  5.6332e-01  6.2266e-03  0:03:03 1711
   290  5.8009e-03  1.0250e-02  4.2015e-03  5.7740e-01  5.7877e-03  0:02:26 1710
   291  5.6586e-03  1.0246e-02  4.2007e-03  5.9253e-01  5.6461e-03  0:01:57 1709
   292  5.8865e-03  1.0233e-02  4.1220e-03  6.1900e-01  5.8753e-03  0:01:34 1708
   293  6.2863e-03  1.0216e-02  4.0343e-03  6.4358e-01  6.2764e-03  0:01:15 1707
   294  6.6455e-03  1.0190e-02  3.9712e-03  6.6863e-01  6.6367e-03  0:01:00 1706
   295  6.8327e-03  1.0074e-02  3.9472e-03  6.8456e-01  6.8247e-03  0:00:48 1705
   296  6.7615e-03  9.8992e-03  3.9384e-03  6.8141e-01  6.7541e-03  0:00:38 1704
   297  6.4098e-03  9.7376e-03  3.9487e-03  6.5534e-01  6.4027e-03  0:00:31 1703

  iter  continuity  x-velocity  y-velocity  z-velocity      energy     time/iter
   298  5.8005e-03  9.6411e-03  3.9674e-03  6.1600e-01  5.7938e-03  0:00:24 1702
   299  5.1632e-03  9.5469e-03  3.9384e-03  5.8350e-01  5.1569e-03  0:00:20 1701
   300  4.6368e-03  9.4918e-03  3.8665e-03  5.5838e-01  4.6311e-03  0:05:56 1700
   301  4.4837e-03  9.4907e-03  3.7642e-03  5.5064e-01  4.4788e-03  0:04:44 1699
   302  4.8863e-03  9.5195e-03  3.6455e-03  5.5750e-01  4.8823e-03  0:03:47 1698
   303  5.1877e-03  9.4977e-03  3.5094e-03  5.5554e-01  5.1842e-03  0:03:02 1697
   304  5.1697e-03  9.4493e-03  3.4019e-03  5.4794e-01  5.1665e-03  0:02:25 1696
   305  4.7938e-03  9.3720e-03  3.3128e-03  5.2909e-01  4.7911e-03  0:01:56 1695
   306  4.2275e-03  9.3166e-03  3.2200e-03  5.0740e-01  4.2254e-03  0:01:33 1694
   307  3.9347e-03  9.2192e-03  3.1275e-03  4.9066e-01  3.9332e-03  0:01:14 1693
   308  3.8695e-03  9.1224e-03  3.0328e-03  4.8413e-01  3.8682e-03  0:00:59 1692

  iter  continuity  x-velocity  y-velocity  z-velocity      energy     time/iter
   309  3.7412e-03  8.9539e-03  2.9637e-03  4.9010e-01  3.7400e-03  0:00:47 1691
   310  3.5865e-03  8.7510e-03  2.9116e-03  5.0070e-01  3.5853e-03  0:00:38 1690
   311  3.4839e-03  8.6221e-03  2.9030e-03  5.1132e-01  3.4826e-03  0:00:30 1689
   312  3.3833e-03  8.5064e-03  2.8688e-03  5.1846e-01  3.3818e-03  0:00:24 1688
   313  3.3952e-03  8.3884e-03  2.8311e-03  5.2665e-01  3.3935e-03  0:05:57 1687
   314  3.4707e-03  8.2839e-03  2.7945e-03  5.3294e-01  3.4688e-03  0:04:45 1686
   315  3.6430e-03  8.2192e-03  2.7457e-03  5.3534e-01  3.6409e-03  0:03:48 1685
   316  3.7968e-03  8.1546e-03  2.6902e-03  5.3700e-01  3.7946e-03  0:03:02 1684
   317  3.8484e-03  8.0806e-03  2.6535e-03  5.4219e-01  3.8460e-03  0:02:26 1683
   318  3.7300e-03  8.0103e-03  2.6423e-03  5.4421e-01  3.7274e-03  0:01:57 1682
   319  3.5964e-03  7.9522e-03  2.6688e-03  5.4391e-01  3.5937e-03  0:01:33 1681

  iter  continuity  x-velocity  y-velocity  z-velocity      energy     time/iter
   320  3.5591e-03  7.9110e-03  2.7470e-03  5.4165e-01  3.5563e-03  0:01:15 1680
   321  3.5318e-03  7.9127e-03  2.8400e-03  5.3908e-01  3.5287e-03  0:01:00 1679
   322  3.5011e-03  7.9715e-03  2.9623e-03  5.3757e-01  3.4980e-03  0:00:48 1678
   323  3.4213e-03  8.0665e-03  3.0779e-03  5.3632e-01  3.4181e-03  0:00:38 1677
   324  3.3156e-03  8.2048e-03  3.1422e-03  5.3380e-01  3.3124e-03  0:00:30 1676
   325  3.0873e-03  8.3308e-03  3.1713e-03  5.3044e-01  3.0840e-03  0:00:24 1675
   326  2.8275e-03  8.4065e-03  3.1820e-03  5.2786e-01  2.8242e-03  0:05:54 1674
   327  2.6247e-03  8.4206e-03  3.1784e-03  5.2101e-01  2.6211e-03  0:04:43 1673
   328  2.5655e-03  8.3792e-03  3.1343e-03  5.1806e-01  2.5619e-03  0:03:46 1672
   329  2.5791e-03  8.3214e-03  3.0486e-03  5.1386e-01  2.5756e-03  0:03:01 1671
   330  2.6695e-03  8.2546e-03  2.9353e-03  5.0958e-01  2.6661e-03  0:02:25 1670

  iter  continuity  x-velocity  y-velocity  z-velocity      energy     time/iter
   331  2.7864e-03  8.1904e-03  2.8196e-03  5.1595e-01  2.7830e-03  0:01:56 1669
   332  2.8859e-03  8.1360e-03  2.7048e-03  5.2721e-01  2.8824e-03  0:01:33 1668
   333  2.9872e-03  8.0848e-03  2.6149e-03  5.3733e-01  2.9835e-03  0:01:14 1667
   334  3.0170e-03  8.0460e-03  2.5737e-03  5.4367e-01  3.0131e-03  0:00:59 1666
   335  2.9356e-03  8.0434e-03  2.5865e-03  5.4532e-01  2.9312e-03  0:00:47 1665
   336  2.8265e-03  8.0867e-03  2.6406e-03  5.4504e-01  2.8217e-03  0:00:38 1664
   337  2.7278e-03  8.1284e-03  2.7135e-03  5.3275e-01  2.7228e-03  0:00:30 1663
   338  2.6535e-03  8.1943e-03  2.7845e-03  5.1737e-01  2.6483e-03  0:00:24 1662
   339  2.5976e-03  8.2630e-03  2.9188e-03  4.9974e-01  2.5924e-03  0:00:19 1661
   340  2.5339e-03  8.2541e-03  2.9070e-03  4.8517e-01  2.5286e-03  0:05:47 1660
   341  2.5601e-03  8.2487e-03  2.8326e-03  4.7722e-01  2.5550e-03  0:04:38 1659

  iter  continuity  x-velocity  y-velocity  z-velocity      energy     time/iter
   342  2.6532e-03  8.2465e-03  2.7762e-03  4.7681e-01  2.6484e-03  0:03:42 1658
   343  2.7981e-03  8.2434e-03  2.7185e-03  4.8044e-01  2.7937e-03  0:02:58 1657
   344  2.9566e-03  8.2337e-03  2.6488e-03  4.8465e-01  2.9526e-03  0:02:22 1656
   345  3.1082e-03  8.2083e-03  2.5684e-03  4.8998e-01  3.1045e-03  0:01:54 1655
   346  3.2269e-03  8.1801e-03  2.4913e-03  4.9910e-01  3.2234e-03  0:01:31 1654
   347  3.2965e-03  8.1693e-03  2.4288e-03  5.0269e-01  3.2931e-03  0:01:13 1653
   348  3.3343e-03  8.1570e-03  2.3942e-03  5.0299e-01  3.3308e-03  0:00:58 1652
   349  3.3138e-03  8.1609e-03  2.3859e-03  5.0175e-01  3.3100e-03  0:00:46 1651
   350  3.1900e-03  8.1488e-03  2.4082e-03  4.9114e-01  3.1858e-03  0:06:07 1650
   351  3.0430e-03  8.1395e-03  2.4588e-03  4.7691e-01  3.0381e-03  0:04:53 1649
   352  2.8692e-03  8.1420e-03  2.5107e-03  4.6310e-01  2.8637e-03  0:03:55 1648

  iter  continuity  x-velocity  y-velocity  z-velocity      energy     time/iter
   353  2.6833e-03  8.1333e-03  2.5319e-03  4.4869e-01  2.6773e-03  0:03:08 1647
   354  2.5528e-03  8.1584e-03  2.5641e-03  4.2999e-01  2.5463e-03  0:02:30 1646
   355  2.4554e-03  8.1066e-03  2.5759e-03  4.1615e-01  2.4484e-03  0:02:00 1645
   356  2.4089e-03  8.0356e-03  2.5545e-03  4.0620e-01  2.4012e-03  0:01:36 1644
   357  2.4542e-03  7.9988e-03  2.5201e-03  4.0255e-01  2.4460e-03  0:01:17 1643
   358  2.5464e-03  7.9522e-03  2.4536e-03  4.0152e-01  2.5378e-03  0:01:01 1642
   359  2.6682e-03  7.8982e-03  2.4235e-03  4.0109e-01  2.6594e-03  0:00:49 1641
   360  2.7983e-03  7.8354e-03  2.3926e-03  3.9754e-01  2.7892e-03  0:00:39 1640
   361  2.9129e-03  7.7722e-03  2.3566e-03  3.9010e-01  2.9034e-03  0:00:31 1639
   362  3.0029e-03  7.7108e-03  2.3306e-03  3.8264e-01  2.9929e-03  0:00:25 1638
   363  3.0693e-03  7.6516e-03  2.3142e-03  3.7403e-01  3.0588e-03  0:05:47 1637

  iter  continuity  x-velocity  y-velocity  z-velocity      energy     time/iter
   364  3.0934e-03  7.5922e-03  2.3089e-03  3.6536e-01  3.0823e-03  0:04:38 1636
   365  3.0773e-03  7.5346e-03  2.3132e-03  3.5709e-01  3.0655e-03  0:03:42 1635
   366  3.0511e-03  7.4794e-03  2.3264e-03  3.5148e-01  3.0387e-03  0:02:58 1634
   367  3.0634e-03  7.4251e-03  2.3499e-03  3.4993e-01  3.0506e-03  0:02:22 1633
   368  3.0701e-03  7.3798e-03  2.3813e-03  3.5548e-01  3.0568e-03  0:01:53 1632
   369  2.9642e-03  7.3200e-03  2.4190e-03  3.5130e-01  2.9502e-03  0:01:31 1631
   370  2.8617e-03  7.2759e-03  2.4595e-03  3.4341e-01  2.8469e-03  0:01:13 1630
   371  2.7980e-03  7.2313e-03  2.4999e-03  3.3775e-01  2.7828e-03  0:00:58 1629
   372  2.7467e-03  7.1427e-03  2.5377e-03  3.3232e-01  2.7310e-03  0:00:46 1628
   373  2.7134e-03  7.0773e-03  2.5798e-03  3.2467e-01  2.6974e-03  0:00:37 1627
   374  2.6759e-03  7.0221e-03  2.6126e-03  3.1546e-01  2.6597e-03  0:00:30 1626

  iter  continuity  x-velocity  y-velocity  z-velocity      energy     time/iter
   375  2.6339e-03  6.9687e-03  2.6429e-03  3.0590e-01  2.6174e-03  0:00:24 1625
   376  2.5939e-03  6.9214e-03  2.6710e-03  2.9598e-01  2.5773e-03  0:00:19 1624
   377  2.5447e-03  6.8771e-03  2.6953e-03  2.8599e-01  2.5278e-03  0:05:40 1623
   378  2.4988e-03  6.8328e-03  2.7161e-03  2.7679e-01  2.4817e-03  0:04:32 1622
   379  2.4519e-03  6.7878e-03  2.7337e-03  2.6807e-01  2.4345e-03  0:03:37 1621
   380  2.4135e-03  6.7426e-03  2.7476e-03  2.6062e-01  2.3959e-03  0:02:54 1620
   381  2.3603e-03  6.6997e-03  2.7577e-03  2.5203e-01  2.3424e-03  0:02:19 1619
   382  2.3076e-03  6.6582e-03  2.7647e-03  2.4310e-01  2.2894e-03  0:01:51 1618
   383  2.2484e-03  6.6181e-03  2.7689e-03  2.3407e-01  2.2298e-03  0:01:29 1617
   384  2.1924e-03  6.5750e-03  2.7706e-03  2.2550e-01  2.1733e-03  0:01:11 1616
   385  2.1369e-03  6.5307e-03  2.7700e-03  2.1729e-01  2.1174e-03  0:00:57 1615

  iter  continuity  x-velocity  y-velocity  z-velocity      energy     time/iter
   386  2.0805e-03  6.4863e-03  2.7671e-03  2.0955e-01  2.0605e-03  0:00:45 1614
   387  2.0234e-03  6.4353e-03  2.7622e-03  2.0253e-01  2.0028e-03  0:00:36 1613
   388  1.9708e-03  6.3838e-03  2.7556e-03  1.9588e-01  1.9496e-03  0:00:29 1612
   389  1.9225e-03  6.3340e-03  2.7481e-03  1.8999e-01  1.9006e-03  0:00:23 1611
   390  1.8773e-03  6.2854e-03  2.7398e-03  1.8531e-01  1.8549e-03  0:00:19 1610
   391  1.8353e-03  6.2368e-03  2.7312e-03  1.8148e-01  1.8122e-03  0:05:37 1609
   392  1.7976e-03  6.1859e-03  2.7221e-03  1.7968e-01  1.7740e-03  0:04:29 1608
   393  1.7671e-03  6.1362e-03  2.7125e-03  1.7909e-01  1.7429e-03  0:03:35 1607
   394  1.7416e-03  6.0861e-03  2.7028e-03  1.7941e-01  1.7168e-03  0:02:52 1606
   395  1.7204e-03  6.0365e-03  2.6934e-03  1.8077e-01  1.6951e-03  0:02:18 1605
   396  1.7050e-03  5.9889e-03  2.6844e-03  1.8271e-01  1.6794e-03  0:01:50 1604

  iter  continuity  x-velocity  y-velocity  z-velocity      energy     time/iter
   397  1.6939e-03  5.9410e-03  2.6762e-03  1.8577e-01  1.6679e-03  0:01:28 1603
   398  1.6864e-03  5.8968e-03  2.6685e-03  1.8937e-01  1.6600e-03  0:01:10 1602
   399  1.6812e-03  5.8551e-03  2.6613e-03  1.9305e-01  1.6546e-03  0:00:56 1601
   400  1.6787e-03  5.8180e-03  2.6541e-03  1.9489e-01  1.6519e-03  0:00:45 1600
   401  1.6773e-03  5.7852e-03  2.6480e-03  1.9536e-01  1.6504e-03  0:00:36 1599
   402  1.6770e-03  5.7580e-03  2.6430e-03  1.9423e-01  1.6500e-03  0:00:29 1598
   403  1.6767e-03  5.7334e-03  2.6393e-03  1.9197e-01  1.6495e-03  0:00:23 1597
   404  1.6766e-03  5.7094e-03  2.6372e-03  1.9109e-01  1.6494e-03  0:00:18 1596
   405  1.6769e-03  5.6901e-03  2.6351e-03  1.9130e-01  1.6497e-03  0:05:34 1595
   406  1.6785e-03  5.6789e-03  2.6337e-03  1.9046e-01  1.6513e-03  0:04:27 1594
   407  1.6815e-03  5.6744e-03  2.6332e-03  1.8985e-01  1.6545e-03  0:03:33 1593

  iter  continuity  x-velocity  y-velocity  z-velocity      energy     time/iter
   408  1.6854e-03  5.6759e-03  2.6346e-03  1.8906e-01  1.6585e-03  0:02:51 1592
   409  1.6886e-03  5.6819e-03  2.6396e-03  1.8773e-01  1.6620e-03  0:02:16 1591
   410  1.6905e-03  5.6927e-03  2.6492e-03  1.8593e-01  1.6641e-03  0:01:49 1590
   411  1.6918e-03  5.7078e-03  2.6615e-03  1.8296e-01  1.6657e-03  0:01:27 1589
   412  1.6908e-03  5.7299e-03  2.6466e-03  1.7918e-01  1.6650e-03  0:01:10 1588
   413  1.6900e-03  5.7524e-03  2.6384e-03  1.7454e-01  1.6645e-03  0:00:56 1587
   414  1.6964e-03  5.7801e-03  2.6356e-03  1.7166e-01  1.6713e-03  0:00:45 1586
   415  1.7075e-03  5.8149e-03  2.6336e-03  1.6925e-01  1.6830e-03  0:00:36 1585
   416  1.7160e-03  5.8570e-03  2.6314e-03  1.6764e-01  1.6919e-03  0:00:28 1584
   417  1.7225e-03  5.9038e-03  2.6281e-03  1.6604e-01  1.6989e-03  0:00:23 1583
   418  1.7372e-03  5.9538e-03  2.6226e-03  1.6676e-01  1.7143e-03  0:05:35 1582

  iter  continuity  x-velocity  y-velocity  z-velocity      energy     time/iter
   419  1.7479e-03  6.0066e-03  2.6147e-03  1.7384e-01  1.7255e-03  0:04:28 1581
   420  1.7571e-03  6.0601e-03  2.6069e-03  1.8178e-01  1.7352e-03  0:03:34 1580
   421  1.7637e-03  6.1121e-03  2.5987e-03  1.9196e-01  1.7423e-03  0:02:51 1579
   422  1.7735e-03  6.1609e-03  2.5898e-03  2.0169e-01  1.7525e-03  0:02:17 1578
   423  1.7819e-03  6.2037e-03  2.5799e-03  2.1187e-01  1.7614e-03  0:01:49 1577
   424  1.7832e-03  6.2444e-03  2.5693e-03  2.2631e-01  1.7631e-03  0:01:27 1576
   425  1.7765e-03  6.2833e-03  2.5585e-03  2.3863e-01  1.7567e-03  0:01:10 1575
   426  1.7694e-03  6.3236e-03  2.5484e-03  2.4967e-01  1.7499e-03  0:00:56 1574
   427  1.7518e-03  6.3533e-03  2.5371e-03  2.5544e-01  1.7324e-03  0:00:45 1573
   428  1.7313e-03  6.3757e-03  2.5261e-03  2.5735e-01  1.7120e-03  0:00:36 1572
   429  1.7142e-03  6.4051e-03  2.5133e-03  2.5379e-01  1.6950e-03  0:00:29 1571

  iter  continuity  x-velocity  y-velocity  z-velocity      energy     time/iter
   430  1.6979e-03  6.4279e-03  2.4981e-03  2.4766e-01  1.6788e-03  0:00:23 1570
   431  1.6784e-03  6.4396e-03  2.4805e-03  2.4397e-01  1.6593e-03  0:00:18 1569
   432  1.6614e-03  6.4481e-03  2.4610e-03  2.4513e-01  1.6423e-03  0:05:28 1568
   433  1.6444e-03  6.4550e-03  2.4414e-03  2.4768e-01  1.6254e-03  0:04:22 1567
   434  1.6272e-03  6.4592e-03  2.4187e-03  2.5069e-01  1.6082e-03  0:03:30 1566
   435  1.6102e-03  6.4616e-03  2.3952e-03  2.5238e-01  1.5912e-03  0:02:48 1565
   436  1.6013e-03  6.4593e-03  2.3699e-03  2.5303e-01  1.5823e-03  0:02:14 1564
   437  1.5882e-03  6.4474e-03  2.3444e-03  2.5275e-01  1.5692e-03  0:01:47 1563
   438  1.5702e-03  6.4291e-03  2.3206e-03  2.4832e-01  1.5511e-03  0:01:26 1562
   439  1.5490e-03  6.4068e-03  2.2986e-03  2.4175e-01  1.5297e-03  0:01:09 1561
   440  1.5276e-03  6.3871e-03  2.2784e-03  2.3430e-01  1.5081e-03  0:00:55 1560

  iter  continuity  x-velocity  y-velocity  z-velocity      energy     time/iter
   441  1.5079e-03  6.3691e-03  2.2598e-03  2.2619e-01  1.4881e-03  0:00:44 1559
   442  1.4899e-03  6.3497e-03  2.2428e-03  2.1798e-01  1.4698e-03  0:00:35 1558
   443  1.4721e-03  6.3270e-03  2.2278e-03  2.1034e-01  1.4516e-03  0:00:28 1557
   444  1.4526e-03  6.2960e-03  2.2153e-03  2.0261e-01  1.4317e-03  0:00:22 1556
   445  1.4335e-03  6.2585e-03  2.2051e-03  1.9539e-01  1.4122e-03  0:05:29 1555
   446  1.4140e-03  6.2214e-03  2.1973e-03  1.8846e-01  1.3922e-03  0:04:23 1554
   447  1.3963e-03  6.1832e-03  2.1917e-03  1.8177e-01  1.3740e-03  0:03:30 1553
   448  1.3821e-03  6.1433e-03  2.1883e-03  1.7513e-01  1.3592e-03  0:02:48 1552
   449  1.3734e-03  6.0979e-03  2.1877e-03  1.6864e-01  1.3500e-03  0:02:14 1551
   450  1.3662e-03  6.0428e-03  2.1887e-03  1.6282e-01  1.3424e-03  0:01:47 1550
   451  1.3596e-03  5.9799e-03  2.1923e-03  1.5782e-01  1.3354e-03  0:01:26 1549

  iter  continuity  x-velocity  y-velocity  z-velocity      energy     time/iter
   452  1.3576e-03  5.9260e-03  2.1965e-03  1.5323e-01  1.3330e-03  0:01:09 1548
   453  1.3594e-03  5.8773e-03  2.2027e-03  1.4836e-01  1.3344e-03  0:00:55 1547
   454  1.3640e-03  5.8313e-03  2.2108e-03  1.4401e-01  1.3387e-03  0:00:44 1546
   455  1.3691e-03  5.7839e-03  2.2202e-03  1.4118e-01  1.3435e-03  0:00:35 1545
   456  1.3763e-03  5.7388e-03  2.2321e-03  1.3800e-01  1.3504e-03  0:00:28 1544
   457  1.3841e-03  5.6971e-03  2.2456e-03  1.3484e-01  1.3580e-03  0:00:22 1543
   458  1.3913e-03  5.6616e-03  2.2604e-03  1.3271e-01  1.3650e-03  0:05:26 1542
   459  1.3974e-03  5.6328e-03  2.2759e-03  1.3207e-01  1.3709e-03  0:04:21 1541
   460  1.4022e-03  5.6046e-03  2.2924e-03  1.3110e-01  1.3755e-03  0:03:29 1540
   461  1.4067e-03  5.5848e-03  2.3095e-03  1.3019e-01  1.3799e-03  0:02:47 1539
   462  1.4098e-03  5.5613e-03  2.3269e-03  1.2936e-01  1.3827e-03  0:02:13 1538

  iter  continuity  x-velocity  y-velocity  z-velocity      energy     time/iter
   463  1.4142e-03  5.5400e-03  2.3446e-03  1.2822e-01  1.3870e-03  0:01:47 1537
   464  1.4166e-03  5.5204e-03  2.3617e-03  1.2717e-01  1.3894e-03  0:01:25 1536
   465  1.4170e-03  5.5065e-03  2.3783e-03  1.2588e-01  1.3897e-03  0:01:08 1535
   466  1.4175e-03  5.5006e-03  2.3947e-03  1.2450e-01  1.3900e-03  0:00:54 1534
   467  1.4180e-03  5.5005e-03  2.4109e-03  1.2293e-01  1.3905e-03  0:05:50 1533
   468  1.4179e-03  5.5023e-03  2.4266e-03  1.2116e-01  1.3904e-03  0:04:40 1532
   469  1.4159e-03  5.5031e-03  2.4411e-03  1.1917e-01  1.3884e-03  0:03:44 1531
   470  1.4122e-03  5.5044e-03  2.4549e-03  1.1686e-01  1.3846e-03  0:02:59 1530
   471  1.4072e-03  5.5062e-03  2.4680e-03  1.1417e-01  1.3796e-03  0:02:23 1529
   472  1.3941e-03  5.4902e-03  2.4798e-03  1.1120e-01  1.3663e-03  0:01:54 1528
   473  1.3821e-03  5.4740e-03  2.4893e-03  1.0794e-01  1.3543e-03  0:01:31 1527

  iter  continuity  x-velocity  y-velocity  z-velocity      energy     time/iter
   474  1.3716e-03  5.4637e-03  2.4972e-03  1.0477e-01  1.3438e-03  0:01:13 1526
   475  1.3599e-03  5.4523e-03  2.5039e-03  1.0134e-01  1.3321e-03  0:00:58 1525
   476  1.3476e-03  5.4385e-03  2.5077e-03  9.7675e-02  1.3198e-03  0:00:47 1524
   477  1.3351e-03  5.4134e-03  2.5104e-03  9.3725e-02  1.3073e-03  0:00:37 1523
   478  1.3207e-03  5.3797e-03  2.5105e-03  8.9638e-02  1.2930e-03  0:00:30 1522
   479  1.3072e-03  5.3443e-03  2.5090e-03  8.5407e-02  1.2796e-03  0:00:24 1521
   480  1.2944e-03  5.3150e-03  2.5057e-03  8.1151e-02  1.2669e-03  0:05:23 1520
   481  1.2789e-03  5.2799e-03  2.5013e-03  7.7011e-02  1.2514e-03  0:04:18 1519
   482  1.2632e-03  5.2451e-03  2.4945e-03  7.3080e-02  1.2359e-03  0:03:27 1518
   483  1.2476e-03  5.2110e-03  2.4852e-03  6.9463e-02  1.2204e-03  0:02:45 1517
   484  1.2317e-03  5.1752e-03  2.4744e-03  6.5996e-02  1.2047e-03  0:02:12 1516

  iter  continuity  x-velocity  y-velocity  z-velocity      energy     time/iter
   485  1.2151e-03  5.1373e-03  2.4620e-03  6.2624e-02  1.1883e-03  0:01:46 1515
   486  1.1967e-03  5.0949e-03  2.4481e-03  5.9577e-02  1.1700e-03  0:01:24 1514
   487  1.1782e-03  5.0480e-03  2.4323e-03  5.6960e-02  1.1517e-03  0:01:07 1513
   488  1.1621e-03  5.0052e-03  2.4150e-03  5.4812e-02  1.1358e-03  0:00:54 1512
   489  1.1434e-03  4.9610e-03  2.3961e-03  5.3161e-02  1.1173e-03  0:00:43 1511
   490  1.1233e-03  4.9163e-03  2.3758e-03  5.1891e-02  1.0974e-03  0:00:34 1510
   491  1.1040e-03  4.8785e-03  2.3543e-03  5.1016e-02  1.0783e-03  0:00:28 1509
   492  1.0853e-03  4.8413e-03  2.3310e-03  5.0419e-02  1.0598e-03  0:00:22 1508
   493  1.0675e-03  4.7972e-03  2.3060e-03  5.0077e-02  1.0422e-03  0:00:18 1507
   494  1.0516e-03  4.7510e-03  2.2803e-03  5.0021e-02  1.0266e-03  0:05:15 1506
   495  1.0346e-03  4.6996e-03  2.2549e-03  4.9877e-02  1.0099e-03  0:04:12 1505

  iter  continuity  x-velocity  y-velocity  z-velocity      energy     time/iter
   496  1.0171e-03  4.6520e-03  2.2276e-03  5.0072e-02  9.9269e-04  0:03:22 1504
   497  9.9794e-04  4.6058e-03  2.1990e-03  5.0507e-02  9.7373e-04  0:02:41 1503
   498  9.7910e-04  4.5629e-03  2.1702e-03  5.1083e-02  9.5513e-04  0:02:09 1502
   499  9.6128e-04  4.5250e-03  2.1411e-03  5.1708e-02  9.3757e-04  0:01:43 1501
   500  9.4397e-04  4.4872e-03  2.1114e-03  5.2504e-02  9.2054e-04  0:01:22 1500
   501  9.2803e-04  4.4502e-03  2.0814e-03  5.5445e-02  9.0488e-04  0:01:06 1499
   502  9.1228e-04  4.4165e-03  2.0512e-03  5.3614e-02  8.8942e-04  0:00:53 1498
   503  8.9616e-04  4.3824e-03  2.0212e-03  5.3900e-02  8.7356e-04  0:00:42 1497
   504  8.8044e-04  4.3450e-03  1.9912e-03  5.3771e-02  8.5810e-04  0:00:34 1496
   505  8.6647e-04  4.3117e-03  1.9616e-03  5.3652e-02  8.4444e-04  0:00:27 1495
   506  8.5105e-04  4.2785e-03  1.9323e-03  5.3451e-02  8.2930e-04  0:05:20 1494

  iter  continuity  x-velocity  y-velocity  z-velocity      energy     time/iter
   507  8.3348e-04  4.2377e-03  1.9035e-03  5.3165e-02  8.1195e-04  0:04:16 1493
   508  8.1747e-04  4.1901e-03  1.8753e-03  5.2747e-02  7.9619e-04  0:03:25 1492
   509  8.0086e-04  4.1430e-03  1.8475e-03  5.2221e-02  7.7981e-04  0:02:44 1491
   510  7.8633e-04  4.0933e-03  1.8203e-03  5.1537e-02  7.6554e-04  0:02:11 1490
   511  7.7388e-04  4.0464e-03  1.7940e-03  5.0683e-02  7.5339e-04  0:01:45 1489
   512  7.6152e-04  3.9963e-03  1.7673e-03  4.9613e-02  7.4131e-04  0:01:24 1488
   513  7.4907e-04  3.9434e-03  1.7413e-03  4.8939e-02  7.2910e-04  0:01:07 1487
   514  7.3683e-04  3.8881e-03  1.7162e-03  4.9612e-02  7.1708e-04  0:00:53 1486
   515  7.2456e-04  3.8290e-03  1.6920e-03  4.9913e-02  7.0500e-04  0:00:43 1485
   516  7.1463e-04  3.7745e-03  1.6686e-03  4.8071e-02  6.9531e-04  0:00:34 1484
   517  7.0623e-04  3.7254e-03  1.6461e-03  4.5560e-02  6.8719e-04  0:00:27 1483

  iter  continuity  x-velocity  y-velocity  z-velocity      energy     time/iter
   518  6.9908e-04  3.6798e-03  1.6247e-03  4.3167e-02  6.8034e-04  0:00:22 1482
   519  6.9238e-04  3.6345e-03  1.6040e-03  4.1145e-02  6.7390e-04  0:00:17 1481
   520  6.8581e-04  3.5891e-03  1.5840e-03  3.9410e-02  6.6757e-04  0:05:10 1480
   521  6.7981e-04  3.5460e-03  1.5644e-03  3.7886e-02  6.6179e-04  0:04:08 1479
   522  6.7492e-04  3.5009e-03  1.5455e-03  3.6482e-02  6.5711e-04  0:03:18 1478
   523  6.6952e-04  3.4504e-03  1.5278e-03  3.5290e-02  6.5186e-04  0:02:38 1477
   524  6.6733e-04  3.4010e-03  1.5101e-03  3.4411e-02  6.4988e-04  0:02:07 1476
   525  6.6402e-04  3.3477e-03  1.4929e-03  3.3929e-02  6.4670e-04  0:01:41 1475
   526  6.6245e-04  3.2954e-03  1.4767e-03  3.3775e-02  6.4526e-04  0:01:21 1474
   527  6.6192e-04  3.2432e-03  1.4613e-03  3.3859e-02  6.4486e-04  0:01:05 1473
   528  6.6217e-04  3.1914e-03  1.4466e-03  3.8722e-02  6.4523e-04  0:00:52 1472

  iter  continuity  x-velocity  y-velocity  z-velocity      energy     time/iter
   529  6.6320e-04  3.1407e-03  1.4324e-03  4.1852e-02  6.4634e-04  0:00:41 1471
   530  6.6573e-04  3.0910e-03  1.4193e-03  4.4112e-02  6.4897e-04  0:00:33 1470
   531  6.6880e-04  3.0429e-03  1.4068e-03  4.4695e-02  6.5210e-04  0:00:26 1469
   532  6.6857e-04  2.9999e-03  1.3967e-03  4.3949e-02  6.5185e-04  0:00:21 1468
   533  6.7431e-04  2.9642e-03  1.3861e-03  4.2725e-02  6.5767e-04  0:00:17 1467
   534  6.8007e-04  2.9257e-03  1.3752e-03  4.1205e-02  6.6346e-04  0:05:07 1466
   535  6.8515e-04  2.8812e-03  1.3653e-03  3.9865e-02  6.6851e-04  0:04:05 1465
   536  6.9195e-04  2.8385e-03  1.3567e-03  3.8381e-02  6.7529e-04  0:03:16 1464
   537  6.9933e-04  2.8020e-03  1.3494e-03  3.6700e-02  6.8265e-04  0:02:37 1463
   538  7.0770e-04  2.7721e-03  1.3434e-03  3.5153e-02  6.9102e-04  0:02:05 1462
   539  7.1637e-04  2.7443e-03  1.3384e-03  3.4054e-02  6.9967e-04  0:01:40 1461

  iter  continuity  x-velocity  y-velocity  z-velocity      energy     time/iter
   540  7.2470e-04  2.7182e-03  1.3344e-03  3.3350e-02  7.0796e-04  0:01:20 1460
   541  7.3275e-04  2.6928e-03  1.3315e-03  3.2898e-02  7.1595e-04  0:01:04 1459
   542  7.4103e-04  2.6645e-03  1.3295e-03  3.2648e-02  7.2418e-04  0:00:51 1458
   543  7.4990e-04  2.6394e-03  1.3285e-03  3.2234e-02  7.3298e-04  0:00:41 1457
   544  7.5893e-04  2.6158e-03  1.3288e-03  3.1456e-02  7.4195e-04  0:00:33 1456
   545  7.6762e-04  2.5924e-03  1.3301e-03  3.0758e-02  7.5057e-04  0:00:26 1455
   546  7.7515e-04  2.5664e-03  1.3328e-03  3.0166e-02  7.5800e-04  0:00:21 1454
   547  7.8384e-04  2.5460e-03  1.3369e-03  2.9938e-02  7.6662e-04  0:05:07 1453
   548  7.9200e-04  2.5279e-03  1.3408e-03  2.9689e-02  7.7472e-04  0:04:06 1452
   549  7.9875e-04  2.5097e-03  1.3455e-03  2.9378e-02  7.8139e-04  0:03:16 1451
   550  8.0462e-04  2.4923e-03  1.3511e-03  2.9136e-02  7.8718e-04  0:02:37 1450

  iter  continuity  x-velocity  y-velocity  z-velocity      energy     time/iter
   551  8.0936e-04  2.4749e-03  1.3576e-03  2.8878e-02  7.9183e-04  0:02:06 1449
   552  8.1240e-04  2.4595e-03  1.3652e-03  2.8585e-02  7.9477e-04  0:01:40 1448
   553  8.1538e-04  2.4471e-03  1.3730e-03  2.8278e-02  7.9765e-04  0:01:20 1447
   554  8.1788e-04  2.4390e-03  1.3814e-03  2.7993e-02  8.0009e-04  0:01:04 1446
   555  8.1890e-04  2.4289e-03  1.3897e-03  2.7749e-02  8.0103e-04  0:00:51 1445
   556  8.1852e-04  2.4172e-03  1.3987e-03  2.7542e-02  8.0056e-04  0:00:41 1444
   557  8.1712e-04  2.4065e-03  1.4082e-03  2.7333e-02  7.9908e-04  0:00:33 1443
   558  8.1470e-04  2.3993e-03  1.4175e-03  2.7152e-02  7.9658e-04  0:00:26 1442
   559  8.1089e-04  2.3935e-03  1.4270e-03  2.7008e-02  7.9272e-04  0:00:21 1441
   560  8.0704e-04  2.3909e-03  1.4361e-03  2.6922e-02  7.8882e-04  0:00:17 1440
   561  8.0180e-04  2.3888e-03  1.4447e-03  2.7023e-02  7.8356e-04  0:05:01 1439

  iter  continuity  x-velocity  y-velocity  z-velocity      energy     time/iter
   562  7.9506e-04  2.3889e-03  1.4534e-03  2.7020e-02  7.7679e-04  0:04:01 1438
   563  7.8851e-04  2.3919e-03  1.4615e-03  2.6992e-02  7.7024e-04  0:03:12 1437
   564  7.8091e-04  2.3951e-03  1.4686e-03  2.6971e-02  7.6265e-04  0:02:34 1436
   565  7.7108e-04  2.3955e-03  1.4750e-03  2.6982e-02  7.5280e-04  0:02:03 1435
   566  7.6113e-04  2.3980e-03  1.4809e-03  2.6955e-02  7.4285e-04  0:01:38 1434
   567  7.5040e-04  2.4017e-03  1.4858e-03  2.6929e-02  7.3213e-04  0:01:19 1433
   568  7.3923e-04  2.4075e-03  1.4896e-03  2.6836e-02  7.2098e-04  0:01:03 1432
   569  7.2454e-04  2.4080e-03  1.4923e-03  2.6606e-02  7.0626e-04  0:00:50 1431
   570  7.1125e-04  2.4110e-03  1.4937e-03  2.6320e-02  6.9299e-04  0:00:40 1430
   571  6.9813e-04  2.4146e-03  1.4940e-03  2.5964e-02  6.7991e-04  0:00:32 1429
   572  6.8511e-04  2.4180e-03  1.4935e-03  2.5538e-02  6.6696e-04  0:00:26 1428

  iter  continuity  x-velocity  y-velocity  z-velocity      energy     time/iter
   573  6.7317e-04  2.4243e-03  1.4914e-03  2.5145e-02  6.5512e-04  0:00:21 1427
   574  6.6044e-04  2.4291e-03  1.4880e-03  2.4781e-02  6.4249e-04  0:05:02 1426
   575  6.4756e-04  2.4340e-03  1.4836e-03  2.4475e-02  6.2972e-04  0:04:01 1425
   576  6.3492e-04  2.4376e-03  1.4776e-03  2.4275e-02  6.1720e-04  0:03:13 1424
   577  6.2175e-04  2.4388e-03  1.4702e-03  2.4260e-02  6.0414e-04  0:02:34 1423
   578  6.0860e-04  2.4386e-03  1.4617e-03  2.4508e-02  5.9110e-04  0:02:03 1422
   579  5.9568e-04  2.4373e-03  1.4519e-03  2.5112e-02  5.7829e-04  0:01:38 1421
   580  5.8322e-04  2.4353e-03  1.4412e-03  2.6072e-02  5.6596e-04  0:01:19 1420
   581  5.7114e-04  2.4320e-03  1.4294e-03  2.7422e-02  5.5402e-04  0:01:03 1419
   582  5.5976e-04  2.4286e-03  1.4164e-03  2.9239e-02  5.4280e-04  0:00:50 1418
   583  5.4824e-04  2.4237e-03  1.4025e-03  3.1243e-02  5.3142e-04  0:00:40 1417

  iter  continuity  x-velocity  y-velocity  z-velocity      energy     time/iter
   584  5.3694e-04  2.4171e-03  1.3880e-03  3.2909e-02  5.2028e-04  0:00:32 1416
   585  5.2687e-04  2.4108e-03  1.3723e-03  3.3271e-02  5.1039e-04  0:00:26 1415
   586  5.1722e-04  2.4046e-03  1.3558e-03  3.3336e-02  5.0092e-04  0:00:21 1414
   587  5.0793e-04  2.3982e-03  1.3387e-03  3.2910e-02  4.9183e-04  0:04:59 1413
   588  4.9929e-04  2.3914e-03  1.3210e-03  3.2160e-02  4.8339e-04  0:03:59 1412
   589  4.9059e-04  2.3779e-03  1.3028e-03  3.1992e-02  4.7488e-04  0:03:11 1411
   590  4.8280e-04  2.3663e-03  1.2842e-03  4.3753e-02  4.6730e-04  0:02:33 1410
   591  4.7469e-04  2.3579e-03  1.2652e-03  5.4096e-02  4.5940e-04  0:02:02 1409
   592  4.6747e-04  2.3498e-03  1.2460e-03  5.9834e-02  4.5241e-04  0:01:38 1408
   593  4.6091e-04  2.3412e-03  1.2268e-03  6.1601e-02  4.4609e-04  0:01:18 1407
   594  4.5409e-04  2.3306e-03  1.2074e-03  6.0179e-02  4.3949e-04  0:01:02 1406

  iter  continuity  x-velocity  y-velocity  z-velocity      energy     time/iter
   595  4.4778e-04  2.3188e-03  1.1882e-03  5.7186e-02  4.3341e-04  0:00:50 1405
   596  4.4342e-04  2.3089e-03  1.1686e-03  5.5735e-02  4.2933e-04  0:00:40 1404
   597  4.3897e-04  2.2995e-03  1.1492e-03  5.3146e-02  4.2516e-04  0:00:32 1403
   598  4.3456e-04  2.2910e-03  1.1300e-03  5.0129e-02  4.2103e-04  0:00:25 1402
   599  4.2180e-04  2.2740e-03  1.1112e-03  4.7641e-02  4.0830e-04  0:00:20 1401
   600  4.1464e-04  2.2619e-03  1.0923e-03  4.5566e-02  4.0134e-04  0:00:16 1400
   601  4.0860e-04  2.2500e-03  1.0737e-03  4.4446e-02  3.9553e-04  0:04:53 1399
   602  4.0294e-04  2.2390e-03  1.0555e-03  4.4229e-02  3.9010e-04  0:03:54 1398
   603  3.9745e-04  2.2281e-03  1.0373e-03  4.4972e-02  3.8484e-04  0:03:07 1397
   604  3.9307e-04  2.2181e-03  1.0196e-03  4.6903e-02  3.8072e-04  0:02:30 1396
   605  3.8824e-04  2.2079e-03  1.0022e-03  5.0153e-02  3.7614e-04  0:02:00 1395

  iter  continuity  x-velocity  y-velocity  z-velocity      energy     time/iter
   606  3.8106e-04  2.1947e-03  9.8526e-04  5.4816e-02  3.6915e-04  0:01:36 1394
   607  3.7384e-04  2.1808e-03  9.6872e-04  6.0002e-02  3.6212e-04  0:01:16 1393
   608  3.6722e-04  2.1678e-03  9.5205e-04  6.4225e-02  3.5571e-04  0:01:01 1392
   609  3.6040e-04  2.1550e-03  9.3563e-04  6.8356e-02  3.4910e-04  0:00:49 1391
   610  3.5339e-04  2.1425e-03  9.1964e-04  7.2533e-02  3.4230e-04  0:00:39 1390
   611  3.4632e-04  2.1307e-03  9.0401e-04  7.5518e-02  3.3543e-04  0:00:31 1389
   612  3.3923e-04  2.1196e-03  8.8869e-04  7.5926e-02  3.2855e-04  0:00:25 1388
   613  3.3193e-04  2.1090e-03  8.7359e-04  7.5569e-02  3.2145e-04  0:00:20 1387
   614  3.2460e-04  2.0990e-03  8.5865e-04  7.4735e-02  3.1433e-04  0:04:53 1386
   615  3.1715e-04  2.0890e-03  8.4386e-04  7.3731e-02  3.0709e-04  0:03:54 1385
   616  3.0915e-04  2.0767e-03  8.2978e-04  7.2660e-02  2.9929e-04  0:03:07 1384

  iter  continuity  x-velocity  y-velocity  z-velocity      energy     time/iter
   617  3.0240e-04  2.0661e-03  8.1511e-04  7.1400e-02  2.9277e-04  0:02:30 1383
   618  2.9536e-04  2.0563e-03  8.0036e-04  7.0000e-02  2.8596e-04  0:02:00 1382
   619  2.8797e-04  2.0469e-03  7.8574e-04  6.8822e-02  2.7878e-04  0:01:36 1381
   620  2.8057e-04  2.0378e-03  7.7120e-04  6.7900e-02  2.7159e-04  0:01:17 1380
   621  2.7315e-04  2.0289e-03  7.5682e-04  6.7224e-02  2.6438e-04  0:01:01 1379
   622  2.6591e-04  2.0201e-03  7.4261e-04  6.6784e-02  2.5736e-04  0:00:49 1378
   623  2.5904e-04  2.0120e-03  7.2807e-04  6.6583e-02  2.5071e-04  0:00:39 1377
   624  2.5073e-04  2.0043e-03  7.1343e-04  6.6632e-02  2.4258e-04  0:00:31 1376
   625  2.4200e-04  1.9972e-03  6.9909e-04  6.6725e-02  2.3401e-04  0:05:00 1375
   626  2.3520e-04  1.9900e-03  6.8452e-04  6.6690e-02  2.2743e-04  0:04:00 1374
   627  2.2921e-04  1.9823e-03  6.6982e-04  6.6581e-02  2.2169e-04  0:03:12 1373

  iter  continuity  x-velocity  y-velocity  z-velocity      energy     time/iter
   628  2.2324e-04  1.9743e-03  6.5509e-04  6.6466e-02  2.1595e-04  0:02:33 1372
   629  2.1802e-04  1.9665e-03  6.4033e-04  6.6239e-02  2.1098e-04  0:02:03 1371
   630  2.1087e-04  1.9583e-03  6.2551e-04  6.5967e-02  2.0402e-04  0:01:38 1370
   631  1.9602e-04  1.9472e-03  6.1112e-04  6.5260e-02  1.8910e-04  0:01:18 1369
   632  1.8860e-04  1.9388e-03  5.9599e-04  6.4300e-02  1.8183e-04  0:01:03 1368
   633  1.8355e-04  1.9308e-03  5.8116e-04  6.3359e-02  1.7700e-04  0:00:50 1367
   634  1.7908e-04  1.9225e-03  5.6658e-04  6.1869e-02  1.7275e-04  0:00:40 1366
   635  1.7549e-04  1.9144e-03  5.5208e-04  5.9515e-02  1.6940e-04  0:00:32 1365
   636  1.7160e-04  1.9053e-03  5.3753e-04  5.7026e-02  1.6573e-04  0:00:26 1364
   637  1.6733e-04  1.8950e-03  5.2316e-04  5.5782e-02  1.6165e-04  0:00:20 1363
   638  1.6294e-04  1.8836e-03  5.0885e-04  5.5523e-02  1.5744e-04  0:04:49 1362

  iter  continuity  x-velocity  y-velocity  z-velocity      energy     time/iter
   639  1.5839e-04  1.8711e-03  4.9464e-04  5.7693e-02  1.5305e-04  0:03:51 1361
   640  1.5373e-04  1.8577e-03  4.8065e-04  6.3956e-02  1.4854e-04  0:03:05 1360
   641  1.4912e-04  1.8436e-03  4.6686e-04  7.4360e-02  1.4405e-04  0:02:28 1359
   642  1.4585e-04  1.8287e-03  4.5298e-04  1.0159e-01  1.4093e-04  0:01:58 1358
   643  1.4524e-04  1.8138e-03  4.3966e-04  1.3532e-01  1.4054e-04  0:01:34 1357
   644  1.4327e-04  1.7986e-03  4.2676e-04  1.6638e-01  1.3874e-04  0:01:15 1356
   645  1.3981e-04  1.7835e-03  4.1419e-04  1.9074e-01  1.3540e-04  0:01:00 1355
   646  1.3552e-04  1.7687e-03  4.0211e-04  2.0579e-01  1.3119e-04  0:00:48 1354
   647  1.3140e-04  1.7538e-03  3.9005e-04  2.1221e-01  1.2715e-04  0:00:38 1353
   648  1.2722e-04  1.7388e-03  3.7831e-04  2.1064e-01  1.2303e-04  0:00:31 1352
   649  1.2378e-04  1.7243e-03  3.6703e-04  2.0871e-01  1.1966e-04  0:00:25 1351

  iter  continuity  x-velocity  y-velocity  z-velocity      energy     time/iter
   650  1.2172e-04  1.7109e-03  3.5623e-04  2.0932e-01  1.1770e-04  0:00:20 1350
   651  1.1877e-04  1.6969e-03  3.4591e-04  2.0892e-01  1.1481e-04  0:04:46 1349
   652  1.1639e-04  1.6830e-03  3.3599e-04  2.0475e-01  1.1250e-04  0:03:48 1348
   653  1.1486e-04  1.6692e-03  3.2634e-04  1.9771e-01  1.1105e-04  0:03:02 1347
   654  1.1389e-04  1.6553e-03  3.1704e-04  1.8804e-01  1.1016e-04  0:02:26 1346
   655  1.1171e-04  1.6419e-03  3.0885e-04  1.7771e-01  1.0802e-04  0:01:57 1345
   656  1.1149e-04  1.6291e-03  3.0073e-04  1.6877e-01  1.0789e-04  0:01:33 1344
   657  1.1240e-04  1.6162e-03  2.9265e-04  1.6184e-01  1.0890e-04  0:01:15 1343
   658  1.1329e-04  1.6034e-03  2.8529e-04  1.5671e-01  1.0989e-04  0:01:00 1342
   659  1.1400e-04  1.5911e-03  2.7868e-04  1.5386e-01  1.1069e-04  0:00:48 1341
   660  1.1451e-04  1.5793e-03  2.7257e-04  1.5391e-01  1.1127e-04  0:00:38 1340

  iter  continuity  x-velocity  y-velocity  z-velocity      energy     time/iter
   661  1.1020e-04  1.5679e-03  2.6750e-04  1.5482e-01  1.0691e-04  0:00:30 1339
   662  1.0893e-04  1.5569e-03  2.6202e-04  1.5564e-01  1.0566e-04  0:00:24 1338
   663  1.0887e-04  1.5459e-03  2.5678e-04  1.6062e-01  1.0564e-04  0:00:19 1337
   664  1.0916e-04  1.5347e-03  2.5209e-04  1.6732e-01  1.0598e-04  0:00:16 1336
   665  1.0954e-04  1.5236e-03  2.4792e-04  1.7022e-01  1.0641e-04  0:04:39 1335
   666  1.0997e-04  1.5126e-03  2.4419e-04  1.7313e-01  1.0687e-04  0:03:43 1334
   667  1.1067e-04  1.5023e-03  2.4145e-04  1.7607e-01  1.0763e-04  0:02:59 1333
   668  1.1232e-04  1.4922e-03  2.3870e-04  1.7625e-01  1.0935e-04  0:02:23 1332
   669  1.1318e-04  1.4816e-03  2.3559e-04  1.7784e-01  1.1026e-04  0:01:54 1331
   670  1.1335e-04  1.4707e-03  2.3291e-04  1.8183e-01  1.1044e-04  0:01:31 1330
   671  1.1342e-04  1.4597e-03  2.3071e-04  1.9432e-01  1.1052e-04  0:01:13 1329

  iter  continuity  x-velocity  y-velocity  z-velocity      energy     time/iter
   672  1.1360e-04  1.4488e-03  2.2886e-04  2.0094e-01  1.1072e-04  0:00:58 1328
   673  1.1387e-04  1.4381e-03  2.2731e-04  2.0072e-01  1.1101e-04  0:00:47 1327
   674  1.1417e-04  1.4275e-03  2.2600e-04  1.9907e-01  1.1132e-04  0:00:37 1326
   675  1.1303e-04  1.4168e-03  2.2550e-04  1.8925e-01  1.1018e-04  0:00:30 1325
   676  1.1413e-04  1.4069e-03  2.2455e-04  1.7547e-01  1.1132e-04  0:00:24 1324
   677  1.1527e-04  1.3985e-03  2.2453e-04  1.6437e-01  1.1252e-04  0:00:19 1323
   678  1.1638e-04  1.3910e-03  2.2402e-04  1.6187e-01  1.1367e-04  0:00:15 1322
   679  1.1885e-04  1.3858e-03  2.2672e-04  1.5934e-01  1.1625e-04  0:04:36 1321
   680  1.2110e-04  1.3798e-03  2.2482e-04  1.5463e-01  1.1857e-04  0:03:41 1320
   681  1.2037e-04  1.3700e-03  2.2204e-04  1.4905e-01  1.1780e-04  0:02:57 1319
   682  1.2065e-04  1.3595e-03  2.2166e-04  1.4348e-01  1.1807e-04  0:02:21 1318

  iter  continuity  x-velocity  y-velocity  z-velocity      energy     time/iter
   683  1.2179e-04  1.3503e-03  2.2206e-04  1.3786e-01  1.1924e-04  0:01:53 1317
   684  1.2253e-04  1.3440e-03  2.2359e-04  1.3249e-01  1.2002e-04  0:01:30 1316
   685  1.2346e-04  1.3395e-03  2.2482e-04  1.2656e-01  1.2101e-04  0:01:12 1315
   686  1.2457e-04  1.3351e-03  2.2530e-04  1.2038e-01  1.2217e-04  0:00:58 1314
   687  1.2515e-04  1.3275e-03  2.2561e-04  1.1285e-01  1.2279e-04  0:00:46 1313
   688  1.2600e-04  1.3199e-03  2.2536e-04  1.1044e-01  1.2368e-04  0:00:37 1312
   689  1.2557e-04  1.3115e-03  2.2527e-04  1.0667e-01  1.2327e-04  0:04:52 1311
   690  1.2414e-04  1.3026e-03  2.2528e-04  1.0078e-01  1.2184e-04  0:03:53 1310
   691  1.2205e-04  1.2931e-03  2.2523e-04  9.5117e-02  1.1975e-04  0:03:06 1309
   692  1.1956e-04  1.2833e-03  2.2504e-04  8.9788e-02  1.1724e-04  0:02:29 1308
   693  1.1682e-04  1.2734e-03  2.2469e-04  8.4881e-02  1.1448e-04  0:01:59 1307

  iter  continuity  x-velocity  y-velocity  z-velocity      energy     time/iter
   694  1.1392e-04  1.2635e-03  2.2419e-04  8.0673e-02  1.1157e-04  0:01:35 1306
   695  1.1060e-04  1.2535e-03  2.2374e-04  7.6719e-02  1.0821e-04  0:01:16 1305
   696  1.0764e-04  1.2437e-03  2.2286e-04  7.2835e-02  1.0524e-04  0:01:01 1304
   697  1.0492e-04  1.2343e-03  2.2189e-04  6.9315e-02  1.0251e-04  0:00:49 1303
   698  1.0240e-04  1.2253e-03  2.2088e-04  6.6433e-02  9.9978e-05  0:00:39 1302
   699  1.0008e-04  1.2167e-03  2.1980e-04  6.4336e-02  9.7654e-05  0:00:31 1301
   700  9.7880e-05  1.2083e-03  2.1865e-04  6.3097e-02  9.5450e-05  0:00:25 1300
   701  9.5806e-05  1.2001e-03  2.1741e-04  6.2520e-02  9.3377e-05  0:00:20 1299
   702  9.4097e-05  1.1918e-03  2.1608e-04  6.2465e-02  9.1678e-05  0:00:16 1298
   703  9.2400e-05  1.1841e-03  2.1463e-04  6.2776e-02  8.9994e-05  0:04:32 1297
   704  9.0572e-05  1.1766e-03  2.1309e-04  6.3890e-02  8.8175e-05  0:03:38 1296

  iter  continuity  x-velocity  y-velocity  z-velocity      energy     time/iter
   705  8.8815e-05  1.1693e-03  2.1143e-04  6.5896e-02  8.6426e-05  0:02:54 1295
   706  8.7148e-05  1.1618e-03  2.0968e-04  7.0190e-02  8.4768e-05  0:02:19 1294
   707  8.5642e-05  1.1546e-03  2.0783e-04  7.4132e-02  8.3278e-05  0:01:51 1293
   708  8.4231e-05  1.1476e-03  2.0591e-04  7.7170e-02  8.1888e-05  0:01:29 1292
   709  8.2929e-05  1.1408e-03  2.0392e-04  7.9802e-02  8.0609e-05  0:01:11 1291
   710  8.1360e-05  1.1345e-03  2.0210e-04  8.2285e-02  7.9061e-05  0:00:57 1290
   711  7.9981e-05  1.1285e-03  2.0002e-04  8.4563e-02  7.7711e-05  0:00:45 1289
   712  7.8734e-05  1.1226e-03  1.9782e-04  8.6971e-02  7.6492e-05  0:00:36 1288
   713  7.7549e-05  1.1164e-03  1.9548e-04  8.8587e-02  7.5334e-05  0:00:29 1287
   714  7.6435e-05  1.1104e-03  1.9313e-04  8.4541e-02  7.4249e-05  0:00:23 1286
   715  7.5345e-05  1.1046e-03  1.9079e-04  7.9695e-02  7.3188e-05  0:04:36 1285

  iter  continuity  x-velocity  y-velocity  z-velocity      energy     time/iter
   716  7.4298e-05  1.0989e-03  1.8845e-04  7.6365e-02  7.2171e-05  0:03:40 1284
   717  7.3295e-05  1.0933e-03  1.8609e-04  7.5978e-02  7.1199e-05  0:02:56 1283
   718  7.2333e-05  1.0879e-03  1.8372e-04  7.8569e-02  7.0269e-05  0:02:21 1282
   719  7.1410e-05  1.0825e-03  1.8135e-04  8.3423e-02  6.9379e-05  0:01:53 1281
   720  7.0526e-05  1.0774e-03  1.7897e-04  9.1350e-02  6.8525e-05  0:01:30 1280
   721  6.9623e-05  1.0722e-03  1.7659e-04  1.0221e-01  6.7652e-05  0:01:12 1279
   722  6.8754e-05  1.0672e-03  1.7422e-04  1.5039e-01  6.6813e-05  0:00:57 1278
   723  6.7859e-05  1.0620e-03  1.7186e-04  2.3455e-01  6.5949e-05  0:00:46 1277
   724  6.6956e-05  1.0571e-03  1.6953e-04  2.8466e-01  6.5075e-05  0:00:37 1276
   725  6.6051e-05  1.0522e-03  1.6722e-04  3.1458e-01  6.4199e-05  0:00:29 1275
   726  6.5147e-05  1.0474e-03  1.6495e-04  3.3359e-01  6.3325e-05  0:00:23 1274

  iter  continuity  x-velocity  y-velocity  z-velocity      energy     time/iter
   727  6.4242e-05  1.0428e-03  1.6270e-04  3.3950e-01  6.2448e-05  0:00:19 1273
   728  6.3333e-05  1.0382e-03  1.6048e-04  3.3776e-01  6.1569e-05  0:04:29 1272
   729  6.2405e-05  1.0338e-03  1.5829e-04  3.3043e-01  6.0670e-05  0:03:35 1271
   730  6.1477e-05  1.0294e-03  1.5614e-04  3.2204e-01  5.9771e-05  0:02:52 1270
   731  6.0547e-05  1.0253e-03  1.5403e-04  3.1433e-01  5.8871e-05  0:02:18 1269
   732  5.9608e-05  1.0212e-03  1.5194e-04  3.0814e-01  5.7961e-05  0:01:50 1268
   733  5.8659e-05  1.0173e-03  1.4990e-04  3.0427e-01  5.7042e-05  0:01:28 1267
   734  5.7665e-05  1.0134e-03  1.4790e-04  3.0214e-01  5.6077e-05  0:01:10 1266
   735  5.6667e-05  1.0098e-03  1.4593e-04  3.0201e-01  5.5108e-05  0:00:56 1265
   736  5.5673e-05  1.0062e-03  1.4400e-04  3.0535e-01  5.4144e-05  0:00:45 1264
   737  5.4681e-05  1.0027e-03  1.4209e-04  3.1064e-01  5.3183e-05  0:00:36 1263

  iter  continuity  x-velocity  y-velocity  z-velocity      energy     time/iter
   738  5.3681e-05  9.9940e-04  1.4021e-04  3.1560e-01  5.2214e-05  0:00:29 1262
   739  5.2671e-05  9.9618e-04  1.3835e-04  3.2309e-01  5.1234e-05  0:00:23 1261
   740  5.1649e-05  9.9307e-04  1.3651e-04  3.4660e-01  5.0242e-05  0:04:30 1260
   741  5.0617e-05  9.9008e-04  1.3468e-04  3.8415e-01  4.9240e-05  0:03:36 1259
   742  4.9579e-05  9.8721e-04  1.3287e-04  4.2914e-01  4.8232e-05  0:02:53 1258
   743  4.8529e-05  9.8443e-04  1.3107e-04  4.6803e-01  4.7212e-05  0:02:18 1257
   744  4.7472e-05  9.8173e-04  1.2927e-04  4.9859e-01  4.6184e-05  0:01:50 1256
   745  4.6409e-05  9.7912e-04  1.2747e-04  5.3197e-01  4.5150e-05  0:01:28 1255
   746  4.5230e-05  9.7657e-04  1.2568e-04  5.7041e-01  4.3997e-05  0:01:11 1254
   747  4.4160e-05  9.7422e-04  1.2388e-04  6.1085e-01  4.2954e-05  0:00:56 1253
   748  4.3073e-05  9.7198e-04  1.2209e-04  6.9642e-01  4.1893e-05  0:00:45 1252

  iter  continuity  x-velocity  y-velocity  z-velocity      energy     time/iter
   749  4.1972e-05  9.6988e-04  1.2028e-04  8.2561e-01  4.0817e-05  0:00:36 1251
   750  4.1114e-05  9.6795e-04  1.1848e-04  9.0291e-01  3.9988e-05  0:00:29 1250
   751  3.9794e-05  9.6574e-04  1.1669e-04  8.8231e-01  3.8681e-05  0:00:23 1249
   752  3.8670e-05  9.6364e-04  1.1491e-04  8.1542e-01  3.7574e-05  0:00:18 1248
   753  3.7247e-05  9.6138e-04  1.1314e-04  7.4431e-01  3.6157e-05  0:04:24 1247
   754  3.6224e-05  9.5935e-04  1.1135e-04  6.7181e-01  3.5148e-05  0:03:31 1246
   755  3.5343e-05  9.5744e-04  1.0955e-04  6.0683e-01  3.4282e-05  0:02:49 1245
   756  3.4573e-05  9.5565e-04  1.0776e-04  5.5124e-01  3.3527e-05  0:02:15 1244
   757  3.3899e-05  9.5396e-04  1.0599e-04  5.0358e-01  3.2868e-05  0:01:48 1243
   758  3.3315e-05  9.5235e-04  1.0425e-04  4.6222e-01  3.2298e-05  0:01:26 1242
   759  3.2820e-05  9.5081e-04  1.0254e-04  4.2950e-01  3.1817e-05  0:01:09 1241

  iter  continuity  x-velocity  y-velocity  z-velocity      energy     time/iter
   760  3.2409e-05  9.4933e-04  1.0087e-04  4.0462e-01  3.1419e-05  0:00:55 1240
   761  3.2078e-05  9.4792e-04  9.9238e-05  3.8457e-01  3.1101e-05  0:00:44 1239
   762  3.1830e-05  9.4655e-04  9.7656e-05  3.6740e-01  3.0865e-05  0:00:35 1238
   763  3.1654e-05  9.4523e-04  9.6106e-05  3.5352e-01  3.0700e-05  0:00:28 1237
   764  3.1546e-05  9.4395e-04  9.4632e-05  3.4068e-01  3.0601e-05  0:00:22 1236
   765  3.1519e-05  9.4271e-04  9.3235e-05  3.2860e-01  3.0584e-05  0:00:18 1235
   766  3.1583e-05  9.4152e-04  9.1889e-05  3.1694e-01  3.0657e-05  0:00:14 1234
   767  3.1585e-05  9.4033e-04  9.0622e-05  3.0505e-01  3.0663e-05  0:04:18 1233
   768  3.1720e-05  9.3919e-04  8.9448e-05  2.9362e-01  3.0804e-05  0:03:26 1232
   769  3.1990e-05  9.3808e-04  8.8354e-05  2.8348e-01  3.1081e-05  0:02:45 1231
   770  3.2315e-05  9.3699e-04  8.7359e-05  2.7388e-01  3.1413e-05  0:02:12 1230

  iter  continuity  x-velocity  y-velocity  z-velocity      energy     time/iter
   771  3.2678e-05  9.3592e-04  8.6465e-05  2.6414e-01  3.1782e-05  0:01:45 1229
   772  3.3079e-05  9.3488e-04  8.5671e-05  2.5582e-01  3.2188e-05  0:01:24 1228
   773  3.3512e-05  9.3385e-04  8.4976e-05  2.4987e-01  3.2625e-05  0:01:07 1227
   774  3.3976e-05  9.3283e-04  8.4377e-05  2.4592e-01  3.3092e-05  0:00:54 1226
   775  3.4460e-05  9.3182e-04  8.3875e-05  2.4461e-01  3.3578e-05  0:00:43 1225
   776  3.4970e-05  9.3081e-04  8.3482e-05  2.4489e-01  3.4090e-05  0:00:34 1224
   777  3.5508e-05  9.2981e-04  8.3172e-05  2.4657e-01  3.4628e-05  0:00:27 1223
   778  3.6057e-05  9.2882e-04  8.2952e-05  2.5037e-01  3.5178e-05  0:00:22 1222
   779  3.6613e-05  9.2783e-04  8.2825e-05  2.5615e-01  3.5734e-05  0:00:18 1221
   780  3.7148e-05  9.2680e-04  8.2786e-05  2.6426e-01  3.6267e-05  0:04:18 1220
   781  3.7663e-05  9.2575e-04  8.2828e-05  2.6461e-01  3.6779e-05  0:03:26 1219

  iter  continuity  x-velocity  y-velocity  z-velocity      energy     time/iter
   782  3.8182e-05  9.2469e-04  8.2947e-05  2.5133e-01  3.7295e-05  0:02:45 1218
   783  3.8693e-05  9.2361e-04  8.3146e-05  2.3130e-01  3.7803e-05  0:02:12 1217
   784  3.9182e-05  9.2242e-04  8.3431e-05  2.2369e-01  3.8288e-05  0:01:45 1216
   785  3.9917e-05  9.2108e-04  8.3842e-05  2.2408e-01  3.9022e-05  0:01:24 1215
   786  4.0583e-05  9.1975e-04  8.4303e-05  2.3446e-01  3.9685e-05  0:01:07 1214
   787  4.1179e-05  9.1844e-04  8.4781e-05  2.4589e-01  4.0275e-05  0:00:54 1213
   788  4.1714e-05  9.1718e-04  8.5285e-05  2.5524e-01  4.0804e-05  0:00:43 1212
   789  4.2175e-05  9.1590e-04  8.5837e-05  2.5861e-01  4.1257e-05  0:00:34 1211
   790  4.2589e-05  9.1463e-04  8.6410e-05  2.6135e-01  4.1663e-05  0:00:27 1210
   791  4.2958e-05  9.1334e-04  8.6994e-05  2.6788e-01  4.2022e-05  0:00:22 1209
   792  4.3290e-05  9.1203e-04  8.7593e-05  2.7219e-01  4.2345e-05  0:00:18 1208

  iter  continuity  x-velocity  y-velocity  z-velocity      energy     time/iter
   793  4.3482e-05  9.1068e-04  8.8246e-05  2.7785e-01  4.2525e-05  0:04:15 1207
   794  4.3740e-05  9.0937e-04  8.8970e-05  2.8422e-01  4.2773e-05  0:03:24 1206
   795  4.4068e-05  9.0807e-04  8.9611e-05  2.9037e-01  4.3092e-05  0:02:43 1205
   796  4.4381e-05  9.0669e-04  9.0210e-05  2.9534e-01  4.3396e-05  0:02:10 1204
   797  4.4692e-05  9.0525e-04  9.0807e-05  2.9853e-01  4.3698e-05  0:01:44 1203
   798  4.5006e-05  9.0361e-04  9.1404e-05  3.0017e-01  4.4001e-05  0:01:23 1202
   799  4.5341e-05  9.0187e-04  9.2004e-05  2.9939e-01  4.4327e-05  0:01:07 1201
   800  4.5710e-05  9.0017e-04  9.2611e-05  2.8776e-01  4.4688e-05  0:00:53 1200
   801  4.5996e-05  8.9844e-04  9.3191e-05  3.0356e-01  4.4963e-05  0:00:43 1199
   802  4.6258e-05  8.9654e-04  9.3799e-05  3.8687e-01  4.5214e-05  0:00:34 1198
   803  4.6564e-05  8.9427e-04  9.4438e-05  4.2424e-01  4.5508e-05  0:00:27 1197

  iter  continuity  x-velocity  y-velocity  z-velocity      energy     time/iter
   804  4.6864e-05  8.9216e-04  9.5069e-05  3.9378e-01  4.5797e-05  0:00:22 1196
   805  4.7135e-05  8.9010e-04  9.5687e-05  3.8177e-01  4.6058e-05  0:00:17 1195
   806  4.7452e-05  8.8808e-04  9.6283e-05  3.6931e-01  4.6366e-05  0:04:13 1194
   807  4.7833e-05  8.8608e-04  9.6868e-05  3.5888e-01  4.6738e-05  0:03:22 1193
   808  4.8267e-05  8.8402e-04  9.7456e-05  3.4762e-01  4.7164e-05  0:02:41 1192
   809  4.8749e-05  8.8195e-04  9.8048e-05  3.3378e-01  4.7639e-05  0:02:09 1191
[...]

  iter  continuity  x-velocity  y-velocity  z-velocity      energy     time/iter
  1794  7.2724e-07  4.3513e-06  1.5910e-06  7.7128e-02  7.0692e-07  0:00:14  206
  1795  7.2421e-07  4.3375e-06  1.5841e-06  7.6819e-02  7.0398e-07  0:00:11  205
  1796  7.2126e-07  4.3237e-06  1.5773e-06  7.6466e-02  7.0112e-07  0:00:09  204
  1797  7.1838e-07  4.3099e-06  1.5704e-06  7.6143e-02  6.9832e-07  0:00:07  203
  1798  7.1557e-07  4.2959e-06  1.5636e-06  7.5830e-02  6.9561e-07  0:00:06  202
  1799  7.1285e-07  4.2819e-06  1.5568e-06  7.5528e-02  6.9296e-07  0:00:04  201
  1800  7.1020e-07  4.2679e-06  1.5500e-06  7.5217e-02  6.9040e-07  0:00:04  200
  1801  7.0763e-07  4.2537e-06  1.5433e-06  7.4898e-02  6.8792e-07  0:00:03  199
  1802  7.0514e-07  4.2395e-06  1.5366e-06  7.4566e-02  6.8551e-07  0:00:02  198
  1803  7.0273e-07  4.2253e-06  1.5299e-06  7.4216e-02  6.8318e-07  0:00:02  197
  1804  7.0040e-07  4.2110e-06  1.5234e-06  7.3853e-02  6.8092e-07  0:00:01  196

  iter  continuity  x-velocity  y-velocity  z-velocity      energy     time/iter
  1805  6.9814e-07  4.1967e-06  1.5169e-06  7.3479e-02  6.7874e-07  0:00:40  195
  1806  6.9595e-07  4.1823e-06  1.5105e-06  7.3101e-02  6.7663e-07  0:00:32  194
  1807  6.9384e-07  4.1678e-06  1.5042e-06  7.2731e-02  6.7459e-07  0:00:25  193
  1808  6.9178e-07  4.1534e-06  1.4980e-06  7.2373e-02  6.7261e-07  0:00:20  192
  1809  6.8980e-07  4.1389e-06  1.4919e-06  7.2021e-02  6.7070e-07  0:00:16  191
  1810  6.8787e-07  4.1243e-06  1.4860e-06  7.1671e-02  6.6884e-07  0:00:13  190
  1811  6.8599e-07  4.1098e-06  1.4801e-06  7.1255e-02  6.6703e-07  0:00:10  189
  1812  6.8417e-07  4.0952e-06  1.4744e-06  7.0797e-02  6.6528e-07  0:00:08  188
  1813  6.8240e-07  4.0806e-06  1.4687e-06  7.0311e-02  6.6357e-07  0:00:06  187
  1814  6.8066e-07  4.0660e-06  1.4633e-06  6.9805e-02  6.6190e-07  0:00:05  186
  1815  6.7896e-07  4.0514e-06  1.4579e-06  6.9290e-02  6.6027e-07  0:00:04  185

  iter  continuity  x-velocity  y-velocity  z-velocity      energy     time/iter
  1816  6.7730e-07  4.0368e-06  1.4527e-06  6.8773e-02  6.5866e-07  0:00:03  184
  1817  6.7566e-07  4.0222e-06  1.4476e-06  6.8252e-02  6.5709e-07  0:00:03  183
  1818  6.7404e-07  4.0076e-06  1.4427e-06  6.7733e-02  6.5553e-07  0:00:02  182
  1819  6.7244e-07  3.9930e-06  1.4378e-06  6.7215e-02  6.5399e-07  0:00:02  181
  1820  6.7086e-07  3.9784e-06  1.4331e-06  6.6711e-02  6.5246e-07  0:00:01  180
  1821  6.6928e-07  3.9638e-06  1.4286e-06  6.6195e-02  6.5094e-07  0:00:01  179
  1822  6.6771e-07  3.9492e-06  1.4241e-06  6.5684e-02  6.4942e-07  0:00:36  178
  1823  6.6614e-07  3.9347e-06  1.4198e-06  6.5171e-02  6.4791e-07  0:00:29  177
  1824  6.6456e-07  3.9201e-06  1.4156e-06  6.4655e-02  6.4638e-07  0:00:23  176
  1825  6.6298e-07  3.9056e-06  1.4115e-06  6.4136e-02  6.4485e-07  0:00:18  175
  1826  6.6139e-07  3.8911e-06  1.4075e-06  6.3614e-02  6.4331e-07  0:00:15  174

  iter  continuity  x-velocity  y-velocity  z-velocity      energy     time/iter
  1827  6.5978e-07  3.8766e-06  1.4036e-06  6.3090e-02  6.4175e-07  0:00:12  173
  1828  6.5815e-07  3.8622e-06  1.3998e-06  6.2560e-02  6.4018e-07  0:00:09  172
  1829  6.5651e-07  3.8478e-06  1.3961e-06  6.1981e-02  6.3858e-07  0:00:07  171
  1830  6.5485e-07  3.8334e-06  1.3925e-06  6.0748e-02  6.3697e-07  0:00:06  170
  1831  6.5317e-07  3.8190e-06  1.3889e-06  5.9724e-02  6.3533e-07  0:00:05  169
  1832  6.5146e-07  3.8046e-06  1.3854e-06  5.8925e-02  6.3368e-07  0:00:04  168
  1833  6.4973e-07  3.7903e-06  1.3820e-06  5.8264e-02  6.3199e-07  0:00:03  167
  1834  6.4798e-07  3.7760e-06  1.3786e-06  5.7676e-02  6.3028e-07  0:00:02  166
  1835  6.4620e-07  3.7617e-06  1.3752e-06  5.6940e-02  6.2855e-07  0:00:02  165
  1836  6.4440e-07  3.7474e-06  1.3719e-06  5.6121e-02  6.2679e-07  0:00:01  164
  1837  6.4257e-07  3.7332e-06  1.3686e-06  5.5434e-02  6.2501e-07  0:00:34  163

  iter  continuity  x-velocity  y-velocity  z-velocity      energy     time/iter
  1838  6.4072e-07  3.7190e-06  1.3653e-06  5.4830e-02  6.2321e-07  0:00:27  162
  1839  6.3885e-07  3.7047e-06  1.3620e-06  5.4258e-02  6.2138e-07  0:00:21  161
  1840  6.3695e-07  3.6905e-06  1.3588e-06  5.3677e-02  6.1953e-07  0:00:17  160
  1841  6.3504e-07  3.6764e-06  1.3555e-06  5.3132e-02  6.1767e-07  0:00:13  159
  1842  6.3374e-07  3.6614e-06  1.3522e-06  5.2629e-02  6.1643e-07  0:00:11  158
  1843  6.3386e-07  3.6489e-06  1.3489e-06  5.1812e-02  6.1665e-07  0:00:09  157
  1844  6.3234e-07  3.6339e-06  1.3457e-06  5.0551e-02  6.1519e-07  0:00:07  156
  1845  6.2990e-07  3.6172e-06  1.3427e-06  4.9043e-02  6.1278e-07  0:00:05  155
  1846  6.2729e-07  3.6000e-06  1.3395e-06  4.7442e-02  6.1019e-07  0:00:04  154
  1847  6.2476e-07  3.5831e-06  1.3363e-06  4.5745e-02  6.0768e-07  0:00:03  153
  1848  6.2234e-07  3.5667e-06  1.3331e-06  4.3856e-02  6.0530e-07  0:00:03  152

  iter  continuity  x-velocity  y-velocity  z-velocity      energy     time/iter
  1849  6.2002e-07  3.5506e-06  1.3298e-06  4.1817e-02  6.0301e-07  0:00:02  151
  1850  6.1775e-07  3.5350e-06  1.3264e-06  3.9690e-02  6.0078e-07  0:00:02  150
  1851  6.1553e-07  3.5196e-06  1.3230e-06  3.7530e-02  5.9860e-07  0:00:01  149
  1852  6.1334e-07  3.5045e-06  1.3196e-06  3.5695e-02  5.9645e-07  0:00:01  148
  1853  6.1118e-07  3.4896e-06  1.3161e-06  3.3890e-02  5.9433e-07  0:00:30  147
  1854  6.0905e-07  3.4748e-06  1.3125e-06  3.2047e-02  5.9224e-07  0:00:24  146
  1855  6.0694e-07  3.4602e-06  1.3090e-06  3.0214e-02  5.9018e-07  0:00:19  145
  1856  6.0487e-07  3.4457e-06  1.3054e-06  2.8425e-02  5.8814e-07  0:00:15  144
  1857  6.0282e-07  3.4313e-06  1.3017e-06  2.6688e-02  5.8614e-07  0:00:12  143
  1858  6.0080e-07  3.4171e-06  1.2980e-06  2.5055e-02  5.8416e-07  0:00:10  142
  1859  5.9881e-07  3.4029e-06  1.2943e-06  2.3555e-02  5.8222e-07  0:00:08  141

  iter  continuity  x-velocity  y-velocity  z-velocity      energy     time/iter
  1860  5.9685e-07  3.3887e-06  1.2906e-06  2.2191e-02  5.8031e-07  0:00:06  140
  1861  5.9493e-07  3.3747e-06  1.2868e-06  2.0921e-02  5.7843e-07  0:00:05  139
  1862  5.9303e-07  3.3606e-06  1.2831e-06  1.9755e-02  5.7657e-07  0:00:04  138
  1863  5.9116e-07  3.3466e-06  1.2792e-06  1.8715e-02  5.7475e-07  0:00:03  137
  1864  5.8932e-07  3.3327e-06  1.2754e-06  1.7791e-02  5.7296e-07  0:00:02  136
  1865  5.8751e-07  3.3187e-06  1.2716e-06  1.6975e-02  5.7120e-07  0:00:02  135
  1866  5.8572e-07  3.3048e-06  1.2677e-06  1.6255e-02  5.6946e-07  0:00:02  134
  1867  5.8396e-07  3.2909e-06  1.2639e-06  1.5620e-02  5.6775e-07  0:00:01  133
  1868  5.8223e-07  3.2770e-06  1.2600e-06  1.5060e-02  5.6606e-07  0:00:27  132
  1869  5.8051e-07  3.2631e-06  1.2561e-06  1.4567e-02  5.6440e-07  0:00:22  131
  1870  5.7882e-07  3.2492e-06  1.2523e-06  1.4131e-02  5.6276e-07  0:00:17  130

  iter  continuity  x-velocity  y-velocity  z-velocity      energy     time/iter
  1871  5.7715e-07  3.2353e-06  1.2484e-06  1.3725e-02  5.6113e-07  0:00:14  129
  1872  5.7550e-07  3.2214e-06  1.2446e-06  1.3300e-02  5.5953e-07  0:00:11  128
  1873  5.7386e-07  3.2076e-06  1.2407e-06  1.2926e-02  5.5794e-07  0:00:09  127
  1874  5.7224e-07  3.1937e-06  1.2369e-06  1.2592e-02  5.5637e-07  0:00:07  126
  1875  5.7063e-07  3.1798e-06  1.2331e-06  1.2291e-02  5.5481e-07  0:00:05  125
  1876  5.6903e-07  3.1659e-06  1.2294e-06  1.2016e-02  5.5326e-07  0:00:04  124
  1877  5.6745e-07  3.1521e-06  1.2256e-06  1.1764e-02  5.5172e-07  0:00:03  123
  1878  5.6587e-07  3.1382e-06  1.2219e-06  1.1531e-02  5.5019e-07  0:00:03  122
  1879  5.6430e-07  3.1243e-06  1.2182e-06  1.1313e-02  5.4867e-07  0:00:02  121
  1880  5.6274e-07  3.1105e-06  1.2145e-06  1.1107e-02  5.4716e-07  0:00:02  120
  1881  5.6119e-07  3.0966e-06  1.2109e-06  1.0912e-02  5.4566e-07  0:00:01  119

  iter  continuity  x-velocity  y-velocity  z-velocity      energy     time/iter
  1882  5.5965e-07  3.0827e-06  1.2072e-06  1.0723e-02  5.4416e-07  0:00:25  118
  1883  5.5810e-07  3.0689e-06  1.2036e-06  1.0539e-02  5.4266e-07  0:00:20  117
  1884  5.5657e-07  3.0550e-06  1.2001e-06  1.0359e-02  5.4117e-07  0:00:16  116
  1885  5.5504e-07  3.0412e-06  1.1965e-06  1.0181e-02  5.3969e-07  0:00:12  115
  1886  5.5352e-07  3.0274e-06  1.1930e-06  1.0005e-02  5.3821e-07  0:00:10  114
  1887  5.5200e-07  3.0135e-06  1.1895e-06  9.8282e-03  5.3674e-07  0:00:08  113
  1888  5.5049e-07  2.9997e-06  1.1860e-06  9.6520e-03  5.3527e-07  0:00:06  112
  1889  5.4898e-07  2.9858e-06  1.1826e-06  9.4759e-03  5.3381e-07  0:00:05  111
  1890  5.4748e-07  2.9720e-06  1.1792e-06  9.3004e-03  5.3235e-07  0:00:04  110
  1891  5.4599e-07  2.9582e-06  1.1758e-06  9.1254e-03  5.3091e-07  0:00:03  109
  1892  5.4450e-07  2.9444e-06  1.1724e-06  8.9559e-03  5.2947e-07  0:00:02  108

  iter  continuity  x-velocity  y-velocity  z-velocity      energy     time/iter
  1893  5.4303e-07  2.9306e-06  1.1690e-06  8.7892e-03  5.2803e-07  0:00:02  107
  1894  5.4156e-07  2.9168e-06  1.1657e-06  8.6245e-03  5.2661e-07  0:00:02  106
  1895  5.4010e-07  2.9030e-06  1.1624e-06  8.4619e-03  5.2519e-07  0:00:01  105
  1896  5.3865e-07  2.8892e-06  1.1591e-06  8.3019e-03  5.2378e-07  0:00:01  104
  1897  5.3721e-07  2.8754e-06  1.1558e-06  8.1448e-03  5.2238e-07  0:00:21  103
  1898  5.3578e-07  2.8616e-06  1.1525e-06  7.9914e-03  5.2099e-07  0:00:17  102
  1899  5.3435e-07  2.8479e-06  1.1493e-06  7.8424e-03  5.1961e-07  0:00:13  101
  1900  5.3294e-07  2.8341e-06  1.1461e-06  7.6980e-03  5.1823e-07  0:00:11  100
  1901  5.3153e-07  2.8204e-06  1.1429e-06  7.5575e-03  5.1687e-07  0:00:08   99
  1902  5.3013e-07  2.8067e-06  1.1397e-06  7.4233e-03  5.1550e-07  0:00:07   98
  1903  5.2873e-07  2.7930e-06  1.1365e-06  7.2954e-03  5.1415e-07  0:00:05   97

  iter  continuity  x-velocity  y-velocity  z-velocity      energy     time/iter
  1904  5.2734e-07  2.7793e-06  1.1334e-06  7.1735e-03  5.1280e-07  0:00:04   96
  1905  5.2595e-07  2.7656e-06  1.1302e-06  7.0574e-03  5.1145e-07  0:00:03   95
  1906  5.2456e-07  2.7520e-06  1.1271e-06  6.9469e-03  5.1010e-07  0:00:03   94
  1907  5.2317e-07  2.7383e-06  1.1240e-06  6.8426e-03  5.0875e-07  0:00:02   93
  1908  5.2178e-07  2.7247e-06  1.1210e-06  6.7449e-03  5.0740e-07  0:00:02   92
  1909  5.1993e-07  2.7104e-06  1.1194e-06  6.6488e-03  5.0559e-07  0:00:01   91
  1910  5.1848e-07  2.6963e-06  1.1167e-06  6.5579e-03  5.0417e-07  0:00:01   90
  1911  5.1722e-07  2.6825e-06  1.1135e-06  6.4716e-03  5.0295e-07  0:00:01   89
  1912  5.1602e-07  2.6689e-06  1.1100e-06  6.3889e-03  5.0178e-07  0:00:18   88
  1913  5.1479e-07  2.6555e-06  1.1066e-06  6.3094e-03  5.0059e-07  0:00:14   87
  1914  5.1351e-07  2.6421e-06  1.1032e-06  6.2322e-03  4.9934e-07  0:00:11   86

  iter  continuity  x-velocity  y-velocity  z-velocity      energy     time/iter
  1915  5.1216e-07  2.6288e-06  1.1000e-06  6.1570e-03  4.9804e-07  0:00:09   85
  1916  5.1077e-07  2.6154e-06  1.0969e-06  6.0831e-03  4.9668e-07  0:00:07   84
  1917  5.0933e-07  2.6021e-06  1.0939e-06  6.0104e-03  4.9528e-07  0:00:06   83
  1918  5.0785e-07  2.5888e-06  1.0909e-06  5.9387e-03  4.9384e-07  0:00:04   82
  1919  5.0633e-07  2.5756e-06  1.0880e-06  5.8677e-03  4.9236e-07  0:00:04   81
  1920  5.0478e-07  2.5623e-06  1.0850e-06  5.7975e-03  4.9084e-07  0:00:03   80
  1921  5.0319e-07  2.5491e-06  1.0821e-06  5.7281e-03  4.8930e-07  0:00:02   79
  1922  5.0158e-07  2.5360e-06  1.0792e-06  5.6596e-03  4.8772e-07  0:00:02   78
  1923  4.9993e-07  2.5229e-06  1.0763e-06  5.5923e-03  4.8611e-07  0:00:01   77
  1924  4.9826e-07  2.5098e-06  1.0734e-06  5.5261e-03  4.8448e-07  0:00:01   76
  1925  4.9655e-07  2.4968e-06  1.0704e-06  5.4615e-03  4.8282e-07  0:00:16   75

  iter  continuity  x-velocity  y-velocity  z-velocity      energy     time/iter
  1926  4.9483e-07  2.4838e-06  1.0674e-06  5.3985e-03  4.8113e-07  0:00:13   74
  1927  4.9308e-07  2.4708e-06  1.0644e-06  5.3373e-03  4.7942e-07  0:00:10   73
  1928  4.9131e-07  2.4579e-06  1.0614e-06  5.2781e-03  4.7769e-07  0:00:08   72
  1929  4.8952e-07  2.4450e-06  1.0583e-06  5.2209e-03  4.7595e-07  0:00:06   71
  1930  4.8772e-07  2.4321e-06  1.0552e-06  5.1659e-03  4.7419e-07  0:00:05   70
  1931  4.8591e-07  2.4192e-06  1.0520e-06  5.1128e-03  4.7242e-07  0:00:04   69
  1932  4.8408e-07  2.4064e-06  1.0488e-06  5.0562e-03  4.7063e-07  0:00:03   68
  1933  4.8225e-07  2.3936e-06  1.0456e-06  5.0022e-03  4.6884e-07  0:00:02   67
  1934  4.8041e-07  2.3808e-06  1.0424e-06  4.9523e-03  4.6704e-07  0:00:02   66
  1935  4.7856e-07  2.3681e-06  1.0391e-06  4.9061e-03  4.6524e-07  0:00:01   65
  1936  4.7672e-07  2.3553e-06  1.0357e-06  4.8632e-03  4.6344e-07  0:00:01   64

  iter  continuity  x-velocity  y-velocity  z-velocity      energy     time/iter
  1937  4.7487e-07  2.3426e-06  1.0323e-06  4.8236e-03  4.6164e-07  0:00:01   63
  1938  4.7304e-07  2.3299e-06  1.0289e-06  4.7872e-03  4.5985e-07  0:00:13   62
  1939  4.7120e-07  2.3173e-06  1.0254e-06  4.7541e-03  4.5806e-07  0:00:10   61
  1940  4.6938e-07  2.3046e-06  1.0219e-06  4.7243e-03  4.5628e-07  0:00:08   60
  1941  4.6757e-07  2.2920e-06  1.0184e-06  4.6978e-03  4.5451e-07  0:00:06   59
  1942  4.6577e-07  2.2794e-06  1.0148e-06  4.6746e-03  4.5275e-07  0:00:05   58
  1943  4.6398e-07  2.2668e-06  1.0113e-06  4.6498e-03  4.5101e-07  0:00:04   57
  1944  4.6221e-07  2.2542e-06  1.0076e-06  4.6256e-03  4.4929e-07  0:00:03   56
  1945  4.6046e-07  2.2417e-06  1.0040e-06  4.6053e-03  4.4758e-07  0:00:02   55
  1946  4.5873e-07  2.2291e-06  1.0003e-06  4.5901e-03  4.4590e-07  0:00:02   54
  1947  4.5702e-07  2.2166e-06  9.9666e-07  4.5797e-03  4.4423e-07  0:00:02   53

  iter  continuity  x-velocity  y-velocity  z-velocity      energy     time/iter
  1948  4.5533e-07  2.2041e-06  9.9298e-07  4.5739e-03  4.4259e-07  0:00:01   52
  1949  4.5366e-07  2.1916e-06  9.8929e-07  4.5729e-03  4.4096e-07  0:00:01   51
  1950  4.5201e-07  2.1791e-06  9.8560e-07  4.5766e-03  4.3935e-07  0:00:01   50
  1951  4.5038e-07  2.1667e-06  9.8192e-07  4.5849e-03  4.3777e-07  0:00:10   49
  1952  4.4877e-07  2.1543e-06  9.7824e-07  4.5977e-03  4.3620e-07  0:00:08   48
  1953  4.4718e-07  2.1419e-06  9.7457e-07  4.6148e-03  4.3466e-07  0:00:06   47
  1954  4.4560e-07  2.1295e-06  9.7092e-07  4.6358e-03  4.3312e-07  0:00:05   46
  1955  4.4404e-07  2.1171e-06  9.6729e-07  4.6459e-03  4.3160e-07  0:00:04   45
  1956  4.4249e-07  2.1048e-06  9.6367e-07  4.6336e-03  4.3010e-07  0:00:03   44
  1957  4.4095e-07  2.0925e-06  9.6009e-07  4.6256e-03  4.2860e-07  0:00:02   43
  1958  4.3942e-07  2.0803e-06  9.5653e-07  4.6218e-03  4.2711e-07  0:00:02   42

  iter  continuity  x-velocity  y-velocity  z-velocity      energy     time/iter
  1959  4.3789e-07  2.0680e-06  9.5300e-07  4.6222e-03  4.2563e-07  0:00:01   41
  1960  4.3636e-07  2.0559e-06  9.4950e-07  4.6266e-03  4.2415e-07  0:00:01   40
  1961  4.3484e-07  2.0437e-06  9.4603e-07  4.6287e-03  4.2267e-07  0:00:09   39
  1962  4.3332e-07  2.0316e-06  9.4259e-07  4.6285e-03  4.2119e-07  0:00:07   38
  1963  4.3179e-07  2.0196e-06  9.3918e-07  4.6395e-03  4.1970e-07  0:00:05   37
  1964  4.3025e-07  2.0076e-06  9.3580e-07  4.6582e-03  4.1821e-07  0:00:04   36
  1965  4.2870e-07  1.9956e-06  9.3245e-07  4.6826e-03  4.1670e-07  0:00:03   35
  1966  4.2715e-07  1.9837e-06  9.2913e-07  4.7116e-03  4.1519e-07  0:00:02   34
  1967  4.2558e-07  1.9719e-06  9.2583e-07  4.7446e-03  4.1366e-07  0:00:02   33
  1968  4.2399e-07  1.9601e-06  9.2256e-07  4.7813e-03  4.1212e-07  0:00:01   32
  1969  4.2240e-07  1.9483e-06  9.1930e-07  4.8099e-03  4.1057e-07  0:00:01   31

  iter  continuity  x-velocity  y-velocity  z-velocity      energy     time/iter
  1970  4.2078e-07  1.9366e-06  9.1606e-07  4.8281e-03  4.0899e-07  0:00:01   30
  1971  4.1915e-07  1.9250e-06  9.1284e-07  4.8535e-03  4.0740e-07  0:00:01   29
  1972  4.1750e-07  1.9134e-06  9.0962e-07  4.8421e-03  4.0579e-07  0:00:01   28
  1973  4.1583e-07  1.9019e-06  9.0641e-07  4.8378e-03  4.0417e-07  0:00:00   27
  1974  4.1414e-07  1.8904e-06  9.0321e-07  4.8569e-03  4.0252e-07  0:00:00   26
  1975  4.1244e-07  1.8790e-06  9.0000e-07  4.9028e-03  4.0086e-07  0:00:05   25
  1976  4.1071e-07  1.8676e-06  8.9679e-07  4.9773e-03  3.9918e-07  0:00:04   24
  1977  4.0897e-07  1.8564e-06  8.9357e-07  5.0807e-03  3.9748e-07  0:00:03   23
  1978  4.0722e-07  1.8451e-06  8.9034e-07  5.2095e-03  3.9577e-07  0:00:02   22
  1979  4.0545e-07  1.8339e-06  8.8709e-07  5.3652e-03  3.9405e-07  0:00:02   21
  1980  4.0367e-07  1.8228e-06  8.8383e-07  5.5440e-03  3.9231e-07  0:00:01   20

  iter  continuity  x-velocity  y-velocity  z-velocity      energy     time/iter
  1981  4.0187e-07  1.8117e-06  8.8054e-07  5.6974e-03  3.9055e-07  0:00:01   19
  1982  4.0006e-07  1.8007e-06  8.7724e-07  5.7895e-03  3.8879e-07  0:00:01   18
  1983  3.9824e-07  1.7897e-06  8.7391e-07  5.9241e-03  3.8701e-07  0:00:01   17
  1984  3.9642e-07  1.7788e-06  8.7055e-07  6.0881e-03  3.8523e-07  0:00:00   16
  1985  3.9458e-07  1.7679e-06  8.6717e-07  6.1112e-03  3.8344e-07  0:00:00   15
  1986  3.9274e-07  1.7571e-06  8.6376e-07  6.1140e-03  3.8164e-07  0:00:00   14
  1987  3.9089e-07  1.7462e-06  8.6032e-07  6.1397e-03  3.7984e-07  0:00:00   13
  1988  3.8904e-07  1.7355e-06  8.5685e-07  6.1786e-03  3.7803e-07  0:00:03   12
  1989  3.8719e-07  1.7248e-06  8.5336e-07  6.2241e-03  3.7622e-07  0:00:02   11
  1990  3.8533e-07  1.7141e-06  8.4984e-07  6.2724e-03  3.7441e-07  0:00:01   10
  1991  3.8347e-07  1.7034e-06  8.4629e-07  6.3026e-03  3.7260e-07  0:00:01    9

  iter  continuity  x-velocity  y-velocity  z-velocity      energy     time/iter
  1992  3.8161e-07  1.6928e-06  8.4271e-07  6.3625e-03  3.7079e-07  0:00:01    8
  1993  3.7976e-07  1.6822e-06  8.3911e-07  6.4216e-03  3.6898e-07  0:00:00    7
  1994  3.7790e-07  1.6716e-06  8.3549e-07  6.4699e-03  3.6717e-07  0:00:00    6
  1995  3.7604e-07  1.6611e-06  8.3185e-07  6.5128e-03  3.6536e-07  0:00:00    5
  1996  3.7419e-07  1.6506e-06  8.2819e-07  6.5507e-03  3.6355e-07  0:00:00    4
  1997  3.7234e-07  1.6401e-06  8.2451e-07  6.5539e-03  3.6175e-07  0:00:00    3
  1998  3.7049e-07  1.6297e-06  8.2081e-07  6.5019e-03  3.5995e-07  0:00:00    2
  1999  3.6865e-07  1.6193e-06  8.1710e-07  6.4640e-03  3.5815e-07  0:00:00    1
  2000  3.6681e-07  1.6089e-06  8.1338e-07  6.4465e-03  3.5635e-07  0:00:00    0

> 
adjoint/                parallel/               server/
define/                 parametric-study/       solve/
display/                plot/                   surface/
exit                    preferences/            turbo-workflow/
file/                   print-license-usage     views/
mesh/                   report/

> /file/write-case-data project1
Fast-loading "C:\PROGRA~1\ANSYSI~1\v231\fluent\fluent23.1.0\\addons\afd\lib\hdfio.bin"
Done.

Writing to Engs-30669:"C:\Users\kebl7595\Desktop\CFD\Runs\Actual Data\0 degree normal domain\project1.cas.h5" in NODE0 mode and compression level 1 ...
       12996 cells,     1 zone  ...
       43722 faces,     8 zones ...
       17864 nodes,     1 zone  ...
  Done.
Done.

Writing to Engs-30669:"C:\Users\kebl7595\Desktop\CFD\Runs\Actual Data\0 degree normal domain\project1.dat.h5" in NODE0 mode and compression level 1 ...
  Writing results.
Done.

> /file/export/ascii "./surface.dat" wing te () no pressure mach-number quit no

Writing "./surface.dat"...

Writing information to ascii file ...
Done.


> /plot/plot y "data.dat" no n n pressure-coefficient no n x-coordinate wing ()

> 
adjoint/                parallel/               server/
define/                 parametric-study/       solve/
display/                plot/                   surface/
exit                    preferences/            turbo-workflow/
file/                   print-license-usage     views/
mesh/                   report/

> /exit

Posting ANSYS Product Improvement Program performance data 
Done.
Auto-Transcript Stop Time:  14:29:34, 20 May 2024 GMT Daylight Time 
Total Transcript Time: 2 Minute 42 Second.
