Auto-Transcript Start Time:  11:10:37, 22 May 2024 GMT Daylight Time 
Current Directory: "C:\Users\kebl7595\Desktop\CFD\Runs\Flap\Shallower Aspect Ratio\Larger Size"

              Welcome to ANSYS Fluent 2023 R1

              Copyright 1987-2023 ANSYS, Inc. All Rights Reserved.
              Unauthorized use, distribution or duplication is prohibited.
              This product is subject to U.S. laws governing export and re-export.
              For full Legal Notice, see documentation.

Build Time: Nov 28 2022 09:52:02 EST  Build Id: 10208  
 
Connected License Server List:	1055@ansyslic.eng.ox.ac.uk

*********************************************
Info: Your license enables 4-way parallel execution.
For faster simulations, please start the application with the appropriate parallel options.
*********************************************


     --------------------------------------------------------------
     This is an academic version of ANSYS FLUENT. Usage of this product
     license is limited to the terms and conditions specified in your ANSYS
     license form, additional terms section.
     --------------------------------------------------------------
Host spawning Node 0 on machine "Engs-30669" (win64).

------------------------------------------------------------------------------------
ID    Hostname    Core  O.S.         PID    Vendor                                 
------------------------------------------------------------------------------------
n0    Engs-30669  1/32  Windows-x64  38924  13th Gen Intel(R) Core(TM) i9-13900    
host  Engs-30669        Windows-x64  50872  13th Gen Intel(R) Core(TM) i9-13900    

MPI Option Selected: intel
------------------------------------------------------------------------------------

Cleanup script file is C:\\Users\\kebl7595\\Desktop\\CFD\\Runs\\Flap\\Shallower Aspect Ratio\\Larger Size\\cleanup-fluent-Engs-30669-50872.bat

Posting ANSYS Product Improvement Program startup data
Done.

Reading journal file C:/Users/kebl7595/Desktop/CFD/Runs/Flap/Shallower Aspect Ratio/Larger Size/project1.jou...

> /file/set-batch-options no no no 

> 
define/                 parametric-study/       solve/
display/                plot/                   surface/
exit                    preferences/            switch-to-meshing-mode
file/                   print-license-usage     turbo-workflow/
mesh/                   report/                 views/
parallel/               server/

> /file/import/cgns/mesh  "./project1.cgns"Note: Rank = 0: Process affinity not being set (6).

Importing "./project1.cgns"

Opening library "C:\\PROGRA~1\\ANSYSI~1\\v231\\fluent\\fluent23.1.0\\vki\\win64\\devtools4.4.6.dll"... done.

Read    27900 nodes
   20322 hexahedral cells, zone  1
   14754 quadrilateral wall faces, zone  2.
   53115 quadrilateral interior faces, zone  3.
     474 quadrilateral interface faces, zone  4.

Building...
     mesh
     materials,
     interface,
     domains,
     zones,
	interface-default_subface
	default_interior-1
	default_subface
	default
     parallel,
The automatic selection for flux type has changed to Rhie-Chow: momentum based.

Done.


> 
adjoint/                parallel/               server/
define/                 parametric-study/       solve/
display/                plot/                   surface/
exit                    preferences/            turbo-workflow/
file/                   print-license-usage     views/
mesh/                   report/

> /define/models/solver/density-based-implicit yes

> 
adjoint/                parallel/               server/
define/                 parametric-study/       solve/
display/                plot/                   surface/
exit                    preferences/            turbo-workflow/
file/                   print-license-usage     views/
mesh/                   report/

> /define/models/energy? yes yes invalid command [yes]
yes

> /define/models/viscous/kw-standard? yes

> 
adjoint/                parallel/               server/
define/                 parametric-study/       solve/
display/                plot/                   surface/
exit                    preferences/            turbo-workflow/
file/                   print-license-usage     views/
mesh/                   report/

> /define/materials/change-create air air air is a fluid
yes 
Density
ideal-gas no data required.

no no no no no no

> 
adjoint/                parallel/               server/
define/                 parametric-study/       solve/
display/                plot/                   surface/
exit                    preferences/            turbo-workflow/
file/                   print-license-usage     views/
mesh/                   report/

> /mesh/modify-zones/sep-face-zone-angle 2 90 yes

 6774 faces in contiguous region 0
 366 faces in contiguous region 1
 618 faces in contiguous region 2
 6774 faces in contiguous region 3
 222 faces in contiguous region 4
 Separates zone 2 into 5 zone(s).
Updating new zone information...
   created new zone default_subface:009 from default_subface
   created new zone default_subface:008 from default_subface
   created new zone default_subface:007 from default_subface
   created new zone default_subface:006 from default_subface
done.

> 
adjoint/                parallel/               server/
define/                 parametric-study/       solve/
display/                plot/                   surface/
exit                    preferences/            turbo-workflow/
file/                   print-license-usage     views/
mesh/                   report/

> /define/boundary-conditions/zone-name  6 wing

> /define/boundary-conditions/zone-name  2 sym1

> /define/boundary-conditions/zone-name  8 sym2

> 
adjoint/                parallel/               server/
define/                 parametric-study/       solve/
display/                plot/                   surface/
exit                    preferences/            turbo-workflow/
file/                   print-license-usage     views/
mesh/                   report/

> /define/boundary-conditions/zone-name  7 far1

> /define/boundary-conditions/zone-name 9 far2

> 
adjoint/                parallel/               server/
define/                 parametric-study/       solve/
display/                plot/                   surface/
exit                    preferences/            turbo-workflow/
file/                   print-license-usage     views/
mesh/                   report/

> /define/boundary-conditions/zone-type  7 pressure-far-field

> /define/boundary-conditions/zone-type 9 pressure-far-field

> /define/boundary-conditions/zone-type  2 symmetry

> /define/boundary-conditions/zone-type  8 symmetry

> 
adjoint/                parallel/               server/
define/                 parametric-study/       solve/
display/                plot/                   surface/
exit                    preferences/            turbo-workflow/
file/                   print-license-usage     views/
mesh/                   report/

> /define/boundary-conditions/pressure-far-field (far2 far1)
far1 no 0 no 0.1 no 300 yes no 1 no -0. no 0. no yes 5 0.02

> /define/boundary-conditions/pressure-far-field (far2 far1)
far2 no 0 no 0.1 no 300 yes no 1 no -0. no 0. no yes 5 0.02

> 
adjoint/                parallel/               server/
define/                 parametric-study/       solve/
display/                plot/                   surface/
exit                    preferences/            turbo-workflow/
file/                   print-license-usage     views/
mesh/                   report/

> /solve/initialize/compute-defaults/pressure-far-field (far2 far1)
far1

> /solve/initialize/initialize-flow

> 
adjoint/                parallel/               server/
define/                 parametric-study/       solve/
display/                plot/                   surface/
exit                    preferences/            turbo-workflow/
file/                   print-license-usage     views/
mesh/                   report/

> /solve/monitors/residual/convergence-criteria 1.e-9 1.e-9 1.e-9 1.e-9 1.e-9 1.e-9 1.e-9

> /solve/iterate 2000

  iter  continuity  x-velocity  y-velocity  z-velocity      energy           k       omega     time/iter
     1  1.0000e+00  1.0000e+00  1.0000e+00  1.0000e+00  1.0000e+00  5.7561e-02  5.0243e-02  0:00:00 1999
     2  5.3817e-01  5.6237e-01  4.6899e-01  1.0000e+00  5.3825e-01  5.1544e-02  4.1040e-02  0:00:00 1998
     3  2.9012e-01  3.1689e-01  2.8815e-01  1.0000e+00  2.9007e-01  4.6514e-02  3.6951e-02  0:00:00 1997
     4  1.7653e-01  1.6885e-01  2.1798e-01  8.9766e-01  1.7639e-01  4.2292e-02  3.3808e-02  0:00:00 1996
     5  1.3549e-01  1.0271e-01  1.7487e-01  9.0324e-01  1.3532e-01  3.8785e-02  3.1274e-02  0:00:00 1995
     6  1.2189e-01  7.3360e-02  1.4897e-01  1.0723e+00  1.2171e-01  3.5734e-02  2.9101e-02  0:33:14 1994
     7  1.1260e-01  5.8143e-02  1.3495e-01  1.1441e+00  1.1244e-01  3.3079e-02  2.7167e-02  0:26:34 1993
     8  1.0778e-01  5.2010e-02  1.2732e-01  1.2008e+00  1.0764e-01  3.0776e-02  2.5465e-02  0:21:15 1992
     9  1.0280e-01  4.7013e-02  1.2343e-01  1.2330e+00  1.0267e-01  2.8799e-02  2.3969e-02  0:16:59 1991
    10  9.7053e-02  4.3458e-02  1.2095e-01  1.2265e+00  9.6918e-02  2.7062e-02  2.2673e-02  0:13:35 1990
    11  9.0050e-02  4.4433e-02  1.1906e-01  1.1923e+00  8.9924e-02  2.5535e-02  2.1502e-02  0:10:52 1989

  iter  continuity  x-velocity  y-velocity  z-velocity      energy           k       omega     time/iter
    12  8.0099e-02  4.2249e-02  1.1712e-01  1.1459e+00  7.9974e-02  2.4180e-02  2.0472e-02  0:08:41 1988
    13  7.1487e-02  4.0650e-02  1.1492e-01  1.1018e+00  7.1361e-02  2.2981e-02  1.9562e-02  0:06:57 1987
    14  6.4457e-02  3.9725e-02  1.1068e-01  1.0776e+00  6.4330e-02  2.1931e-02  1.8749e-02  0:05:33 1986
    15  6.1258e-02  3.9912e-02  1.0468e-01  1.0472e+00  6.1130e-02  2.1016e-02  1.8041e-02  0:04:26 1985
    16  5.8891e-02  4.0835e-02  9.8615e-02  1.0169e+00  5.8769e-02  2.0205e-02  1.7376e-02  0:03:33 1984
    17  5.8015e-02  3.9571e-02  9.3569e-02  9.9928e-01  5.7890e-02  1.9483e-02  1.6730e-02  0:09:27 1983
    18  5.7370e-02  3.7656e-02  9.0168e-02  9.7012e-01  5.7246e-02  1.8812e-02  1.6115e-02  0:07:33 1982
    19  5.6424e-02  3.6281e-02  8.6308e-02  9.3169e-01  5.6303e-02  1.8202e-02  1.5590e-02  0:06:02 1981
    20  5.4749e-02  3.5658e-02  8.2173e-02  9.0093e-01  5.4632e-02  1.7651e-02  1.5121e-02  0:04:50 1980
    21  5.2536e-02  3.5148e-02  7.8712e-02  8.8355e-01  5.2423e-02  1.7138e-02  1.4690e-02  0:03:52 1979
    22  5.0971e-02  3.4043e-02  7.6726e-02  8.7163e-01  5.0862e-02  1.6670e-02  1.4270e-02  0:03:05 1978

  iter  continuity  x-velocity  y-velocity  z-velocity      energy           k       omega     time/iter
    23  4.9567e-02  3.2860e-02  7.4472e-02  8.6669e-01  4.9462e-02  1.6240e-02  1.3871e-02  0:02:28 1977
    24  4.7839e-02  3.1215e-02  7.1485e-02  8.8654e-01  4.7737e-02  1.5845e-02  1.3512e-02  0:01:58 1976
    25  4.6718e-02  2.9740e-02  6.9358e-02  9.3550e-01  4.6617e-02  1.5496e-02  1.3221e-02  0:01:35 1975
    26  4.5534e-02  2.8492e-02  6.7993e-02  9.6677e-01  4.5435e-02  1.5181e-02  1.2953e-02  0:07:51 1974
    27  4.5278e-02  2.6826e-02  6.7058e-02  9.9584e-01  4.5181e-02  1.4908e-02  1.2693e-02  0:06:16 1973
    28  4.5307e-02  2.4971e-02  6.6777e-02  1.0099e+00  4.5212e-02  1.4687e-02  1.2442e-02  0:05:01 1972
    29  4.6793e-02  2.2931e-02  6.7289e-02  1.0198e+00  4.6697e-02  1.4456e-02  1.2162e-02  0:04:01 1971
    30  4.8876e-02  2.2195e-02  6.8052e-02  1.0190e+00  4.8781e-02  1.4293e-02  1.2037e-02  0:03:12 1970
    31  5.1174e-02  2.1846e-02  6.9385e-02  9.8106e-01  5.1080e-02  1.4167e-02  1.1878e-02  0:02:34 1969
    32  5.3778e-02  2.0830e-02  7.1176e-02  9.6684e-01  5.3686e-02  1.3970e-02  1.1611e-02  0:02:03 1968
    33  5.6268e-02  2.0297e-02  7.4231e-02  9.4393e-01  5.6177e-02  1.3738e-02  1.1391e-02  0:01:38 1967

  iter  continuity  x-velocity  y-velocity  z-velocity      energy           k       omega     time/iter
    34  5.8228e-02  2.0311e-02  7.7812e-02  8.9869e-01  5.8136e-02  1.3733e-02  1.1316e-02  0:01:19 1966
    35  5.9663e-02  2.0481e-02  8.2041e-02  8.4084e-01  5.9572e-02  1.3528e-02  1.1088e-02  0:01:03 1965
    36  6.0651e-02  2.0612e-02  8.6132e-02  7.8265e-01  6.0561e-02  1.3233e-02  1.0791e-02  0:00:50 1964
    37  6.0818e-02  2.0921e-02  8.9695e-02  7.3435e-01  6.0728e-02  1.3179e-02  1.0674e-02  0:07:13 1963
    38  5.9398e-02  2.1468e-02  9.2152e-02  7.0048e-01  5.9310e-02  1.3085e-02  1.0490e-02  0:05:46 1962
    39  5.6896e-02  2.1933e-02  9.3620e-02  6.7913e-01  5.6809e-02  1.2810e-02  1.0235e-02  0:04:37 1961
    40  5.3303e-02  2.2363e-02  9.3981e-02  6.6445e-01  5.3219e-02  1.2486e-02  9.9731e-03  0:03:41 1960
    41  5.0141e-02  2.2859e-02  9.3536e-02  6.4172e-01  5.0061e-02  1.2321e-02  9.7991e-03  0:02:57 1959
    42  4.6829e-02  2.3197e-02  9.2490e-02  6.2783e-01  4.6754e-02  1.2095e-02  9.5909e-03  0:02:21 1958
    43  4.3882e-02  2.3381e-02  9.1240e-02  6.0222e-01  4.3813e-02  1.1779e-02  9.3878e-03  0:01:53 1957
    44  4.1230e-02  2.3866e-02  8.9981e-02  5.7755e-01  4.1168e-02  1.1541e-02  9.1685e-03  0:01:30 1956

  iter  continuity  x-velocity  y-velocity  z-velocity      energy           k       omega     time/iter
    45  3.8914e-02  2.4353e-02  8.8367e-02  5.5619e-01  3.8855e-02  1.1338e-02  8.9893e-03  0:01:12 1955
    46  3.7650e-02  2.4760e-02  8.6050e-02  5.3354e-01  3.7590e-02  1.1132e-02  8.8286e-03  0:00:58 1954
    47  3.7097e-02  2.4784e-02  8.3590e-02  5.1392e-01  3.7036e-02  1.0881e-02  8.6432e-03  0:00:46 1953
    48  3.6759e-02  2.4846e-02  8.0949e-02  4.9677e-01  3.6698e-02  1.0701e-02  8.4608e-03  0:07:07 1952
    49  3.6587e-02  2.4644e-02  7.8076e-02  4.7909e-01  3.6525e-02  1.0512e-02  8.3160e-03  0:05:42 1951
    50  3.6719e-02  2.3960e-02  7.5721e-02  4.6484e-01  3.6655e-02  1.0375e-02  8.1733e-03  0:04:33 1950
    51  3.7072e-02  2.3423e-02  7.3554e-02  4.5624e-01  3.7007e-02  1.0244e-02  8.0417e-03  0:03:38 1949
    52  3.6735e-02  2.2930e-02  7.1097e-02  4.5298e-01  3.6671e-02  1.0121e-02  7.9152e-03  0:02:55 1948
    53  3.6593e-02  2.2166e-02  6.9096e-02  4.5515e-01  3.6532e-02  9.9961e-03  7.7756e-03  0:02:20 1947
    54  3.6640e-02  2.1383e-02  6.7199e-02  4.6144e-01  3.6581e-02  9.9099e-03  7.6365e-03  0:01:52 1946
    55  3.7253e-02  2.0634e-02  6.5858e-02  4.7261e-01  3.7196e-02  9.8287e-03  7.5254e-03  0:01:29 1945

  iter  continuity  x-velocity  y-velocity  z-velocity      energy           k       omega     time/iter
    56  3.8048e-02  1.9782e-02  6.4658e-02  4.8730e-01  3.7992e-02  9.8019e-03  7.3823e-03  0:01:11 1944
    57  3.9068e-02  1.9134e-02  6.3994e-02  5.0065e-01  3.9013e-02  9.7283e-03  7.2320e-03  0:00:57 1943
    58  3.9915e-02  1.8803e-02  6.3939e-02  5.1549e-01  3.9862e-02  9.6494e-03  7.0912e-03  0:00:46 1942
    59  4.0754e-02  1.8671e-02  6.4210e-02  5.3149e-01  4.0703e-02  9.6561e-03  6.9774e-03  0:07:05 1941
    60  4.1395e-02  1.8738e-02  6.5108e-02  5.4808e-01  4.1345e-02  9.6176e-03  6.8715e-03  0:05:40 1940
    61  4.2344e-02  1.9332e-02  6.6473e-02  5.6656e-01  4.2295e-02  9.6901e-03  6.7367e-03  0:04:32 1939
    62  4.2984e-02  2.0316e-02  6.7961e-02  5.8390e-01  4.2935e-02  9.6754e-03  6.6449e-03  0:03:37 1938
    63  4.3415e-02  2.1268e-02  6.9809e-02  5.9473e-01  4.3367e-02  9.7298e-03  6.5212e-03  0:02:54 1937
    64  4.3354e-02  2.2402e-02  7.1868e-02  5.9876e-01  4.3305e-02  9.8063e-03  6.4587e-03  0:02:19 1936
    65  4.2780e-02  2.3528e-02  7.3975e-02  5.9959e-01  4.2731e-02  9.7836e-03  6.3817e-03  0:01:51 1935
    66  4.1754e-02  2.4579e-02  7.5793e-02  6.0186e-01  4.1706e-02  9.7471e-03  6.2873e-03  0:01:29 1934

  iter  continuity  x-velocity  y-velocity  z-velocity      energy           k       omega     time/iter
    67  4.0071e-02  2.5609e-02  7.7620e-02  5.9866e-01  4.0023e-02  9.7254e-03  6.2178e-03  0:01:11 1933
    68  3.8128e-02  2.6500e-02  7.9476e-02  5.9192e-01  3.8081e-02  9.7159e-03  6.1473e-03  0:00:57 1932
    69  3.6434e-02  2.7277e-02  8.0490e-02  5.9489e-01  3.6387e-02  9.6944e-03  6.1341e-03  0:00:45 1931
    70  3.5676e-02  2.7620e-02  8.1114e-02  6.0848e-01  3.5629e-02  9.5854e-03  6.0840e-03  0:07:02 1930
    71  3.5079e-02  2.7759e-02  8.1213e-02  6.3758e-01  3.5030e-02  9.5425e-03  6.0068e-03  0:05:38 1929
    72  3.5717e-02  2.7519e-02  8.0653e-02  6.7595e-01  3.5667e-02  9.5082e-03  6.0284e-03  0:04:30 1928
    73  3.7164e-02  2.7189e-02  8.0124e-02  7.1311e-01  3.7115e-02  9.4422e-03  6.0536e-03  0:03:36 1927
    74  3.8995e-02  2.6706e-02  7.9576e-02  7.5449e-01  3.8947e-02  9.3017e-03  6.0476e-03  0:02:53 1926
    75  4.1389e-02  2.6181e-02  7.8421e-02  7.9493e-01  4.1343e-02  9.2686e-03  6.0659e-03  0:02:18 1925
    76  4.4077e-02  2.5482e-02  7.6894e-02  8.2968e-01  4.4032e-02  9.3074e-03  6.0982e-03  0:01:50 1924
    77  4.6995e-02  2.4780e-02  7.6210e-02  8.4365e-01  4.6951e-02  9.2842e-03  6.1301e-03  0:01:28 1923

  iter  continuity  x-velocity  y-velocity  z-velocity      energy           k       omega     time/iter
    78  4.9879e-02  2.4220e-02  7.5974e-02  8.5801e-01  4.9837e-02  9.3148e-03  6.1683e-03  0:01:11 1922
    79  5.2946e-02  2.3872e-02  7.5974e-02  8.7179e-01  5.2906e-02  9.3923e-03  6.1915e-03  0:00:56 1921
    80  5.5401e-02  2.3468e-02  7.6099e-02  8.6240e-01  5.5363e-02  9.4833e-03  6.2523e-03  0:00:45 1920
    81  5.7368e-02  2.3233e-02  7.7361e-02  8.5512e-01  5.7329e-02  9.4958e-03  6.2872e-03  0:07:00 1919
    82  5.8505e-02  2.3073e-02  7.9232e-02  8.5637e-01  5.8466e-02  9.5629e-03  6.3217e-03  0:05:36 1918
    83  5.8787e-02  2.2880e-02  8.1017e-02  8.5918e-01  5.8746e-02  9.6712e-03  6.2980e-03  0:04:28 1917
    84  5.7650e-02  2.2754e-02  8.2558e-02  8.3862e-01  5.7609e-02  9.6479e-03  6.2069e-03  0:03:35 1916
    85  5.5712e-02  2.2721e-02  8.4123e-02  8.4069e-01  5.5669e-02  9.5750e-03  6.1222e-03  0:02:52 1915
    86  5.3400e-02  2.2680e-02  8.5345e-02  8.3852e-01  5.3355e-02  9.5787e-03  6.0942e-03  0:02:17 1914
    87  5.0720e-02  2.2671e-02  8.6163e-02  8.3734e-01  5.0675e-02  9.4407e-03  6.0171e-03  0:01:50 1913
    88  4.6836e-02  2.2728e-02  8.7195e-02  8.2767e-01  4.6791e-02  9.3217e-03  5.9148e-03  0:01:28 1912

  iter  continuity  x-velocity  y-velocity  z-velocity      energy           k       omega     time/iter
    89  4.3285e-02  2.2606e-02  8.7911e-02  8.2160e-01  4.3242e-02  9.1575e-03  5.8391e-03  0:01:10 1911
    90  4.0886e-02  2.2783e-02  8.8298e-02  8.1578e-01  4.0842e-02  9.0097e-03  5.8085e-03  0:00:56 1910
    91  3.9241e-02  2.2991e-02  8.7896e-02  8.0474e-01  3.9197e-02  8.9197e-03  5.8003e-03  0:00:45 1909
    92  3.7642e-02  2.3025e-02  8.6521e-02  7.8719e-01  3.7598e-02  8.7429e-03  5.7164e-03  0:00:36 1908
    93  3.6834e-02  2.2928e-02  8.4860e-02  7.6730e-01  3.6789e-02  8.5643e-03  5.6908e-03  0:06:50 1907
    94  3.7358e-02  2.3123e-02  8.3337e-02  3.0818e+00  3.7313e-02  8.3963e-03  5.6383e-03  0:05:28 1906
    95  3.7083e-02  2.3298e-02  8.1604e-02  2.2423e+00  3.7040e-02  8.3751e-03  5.6580e-03  0:04:22 1905
    96  3.6941e-02  2.3062e-02  7.9575e-02  1.2751e+00  3.6898e-02  8.2490e-03  5.5499e-03  0:03:30 1904
    97  3.7671e-02  2.2893e-02  7.6943e-02  1.3063e+00  3.7627e-02  8.1233e-03  5.4714e-03  0:02:48 1903
    98  3.8960e-02  2.2393e-02  7.4812e-02  1.3180e+00  3.8915e-02  7.9854e-03  5.4184e-03  0:02:14 1902
    99  3.9830e-02  2.2075e-02  7.2802e-02  1.1851e+00  3.9788e-02  7.9607e-03  5.3995e-03  0:01:47 1901

  iter  continuity  x-velocity  y-velocity  z-velocity      energy           k       omega     time/iter
   100  4.1351e-02  2.1871e-02  7.0860e-02  1.0585e+00  4.1313e-02  7.9160e-03  5.3735e-03  0:01:26 1900
   101  4.3130e-02  2.1492e-02  6.8827e-02  9.6491e-01  4.3092e-02  7.8952e-03  5.2568e-03  0:01:09 1899
   102  4.5314e-02  2.1136e-02  6.7582e-02  9.1565e-01  4.5275e-02  7.7987e-03  5.1530e-03  0:00:55 1898
   103  4.7463e-02  2.0901e-02  6.6981e-02  8.7185e-01  4.7424e-02  7.7448e-03  5.0919e-03  0:00:44 1897
   104  4.8728e-02  2.0599e-02  6.6759e-02  8.4087e-01  4.8690e-02  7.7712e-03  4.9803e-03  0:06:54 1896
   105  4.9812e-02  2.0392e-02  6.6870e-02  7.8447e-01  4.9773e-02  7.7516e-03  4.8840e-03  0:05:31 1895
   106  5.0174e-02  2.0387e-02  6.7202e-02  7.4321e-01  5.0135e-02  7.6552e-03  4.7741e-03  0:04:25 1894
   107  4.9419e-02  2.0303e-02  6.7782e-02  7.0820e-01  4.9379e-02  7.6410e-03  4.7325e-03  0:03:32 1893
   108  4.7515e-02  2.0282e-02  6.8305e-02  6.7044e-01  4.7474e-02  7.6199e-03  4.6611e-03  0:02:49 1892
   109  4.4352e-02  2.0250e-02  6.8593e-02  6.4086e-01  4.4311e-02  7.5353e-03  4.5824e-03  0:02:15 1891
   110  4.0698e-02  2.0315e-02  6.8579e-02  6.4131e-01  4.0657e-02  7.4278e-03  4.4940e-03  0:01:48 1890

  iter  continuity  x-velocity  y-velocity  z-velocity      energy           k       omega     time/iter
   111  3.7317e-02  2.0268e-02  6.8132e-02  6.6301e-01  3.7275e-02  7.3729e-03  4.4812e-03  0:01:27 1889
   112  3.4733e-02  1.9991e-02  6.6871e-02  6.9063e-01  3.4687e-02  7.3482e-03  4.4628e-03  0:01:09 1888
   113  3.3793e-02  1.9554e-02  6.5243e-02  6.8726e-01  3.3747e-02  7.2309e-03  4.4413e-03  0:00:55 1887
   114  3.4945e-02  1.9252e-02  6.3671e-02  6.9098e-01  3.4902e-02  7.1653e-03  4.4379e-03  0:00:44 1886
   115  3.6798e-02  1.9015e-02  6.1891e-02  7.0061e-01  3.6757e-02  7.1585e-03  4.4721e-03  0:00:35 1885
   116  3.8977e-02  1.8506e-02  6.0044e-02  7.0185e-01  3.8936e-02  7.1187e-03  4.4897e-03  0:06:45 1884
   117  4.1140e-02  1.7894e-02  5.8826e-02  6.8442e-01  4.1100e-02  7.0228e-03  4.4995e-03  0:05:24 1883
   118  4.3408e-02  1.7555e-02  5.7714e-02  6.7626e-01  4.3369e-02  7.0258e-03  4.5233e-03  0:04:19 1882
   119  4.5331e-02  1.7332e-02  5.6530e-02  6.7191e-01  4.5293e-02  7.0043e-03  4.5719e-03  0:03:27 1881
   120  4.6909e-02  1.7041e-02  5.5893e-02  6.5815e-01  4.6870e-02  7.0098e-03  4.5617e-03  0:02:46 1880
   121  4.8229e-02  1.6770e-02  5.5928e-02  6.4759e-01  4.8189e-02  6.9761e-03  4.6056e-03  0:02:12 1879

  iter  continuity  x-velocity  y-velocity  z-velocity      energy           k       omega     time/iter
   122  4.8596e-02  1.6552e-02  5.5962e-02  6.4882e-01  4.8555e-02  6.9267e-03  4.6149e-03  0:01:46 1878
   123  4.7907e-02  1.6447e-02  5.6421e-02  6.4366e-01  4.7865e-02  6.8789e-03  4.5934e-03  0:01:25 1877
   124  4.6113e-02  1.6431e-02  5.6920e-02  6.4556e-01  4.6070e-02  6.8606e-03  4.5471e-03  0:01:08 1876
   125  4.3496e-02  1.6327e-02  5.7060e-02  6.5432e-01  4.3453e-02  6.7974e-03  4.5204e-03  0:00:54 1875
   126  4.0015e-02  1.6258e-02  5.7116e-02  6.5288e-01  3.9972e-02  6.7308e-03  4.5273e-03  0:00:43 1874
   127  3.6160e-02  1.6352e-02  5.7291e-02  6.5964e-01  3.6119e-02  6.6614e-03  4.5136e-03  0:06:49 1873
   128  3.2807e-02  1.6397e-02  5.7078e-02  6.6867e-01  3.2769e-02  6.5922e-03  4.4817e-03  0:05:27 1872
   129  3.0379e-02  1.6390e-02  5.6312e-02  6.7431e-01  3.0343e-02  6.5060e-03  4.4465e-03  0:04:22 1871
   130  2.9841e-02  1.6563e-02  5.5278e-02  6.7023e-01  2.9805e-02  6.4187e-03  4.4557e-03  0:03:29 1870
   131  2.9894e-02  1.6632e-02  5.4230e-02  6.6300e-01  2.9859e-02  6.3898e-03  4.4452e-03  0:02:47 1869
   132  3.0084e-02  1.6661e-02  5.2837e-02  6.5494e-01  3.0051e-02  6.3127e-03  4.4078e-03  0:02:14 1868

  iter  continuity  x-velocity  y-velocity  z-velocity      energy           k       omega     time/iter
   133  3.0299e-02  1.6592e-02  5.1185e-02  6.4626e-01  3.0265e-02  6.2311e-03  4.3353e-03  0:01:47 1867
   134  3.0832e-02  1.6370e-02  4.9586e-02  6.3170e-01  3.0798e-02  6.1706e-03  4.3125e-03  0:01:25 1866
   135  3.1225e-02  1.6246e-02  4.7953e-02  6.1569e-01  3.1192e-02  6.1070e-03  4.2479e-03  0:01:08 1865
   136  3.1514e-02  1.5877e-02  4.6139e-02  6.0555e-01  3.1482e-02  6.0422e-03  4.2126e-03  0:00:55 1864
   137  3.2447e-02  1.5597e-02  4.4360e-02  5.9423e-01  3.2414e-02  5.9901e-03  4.1850e-03  0:00:44 1863
   138  3.3681e-02  1.5400e-02  4.2749e-02  5.7816e-01  3.3647e-02  5.9462e-03  4.1100e-03  0:06:47 1862
   139  3.4645e-02  1.5168e-02  4.1772e-02  5.6228e-01  3.4611e-02  5.8926e-03  4.0363e-03  0:05:26 1861
   140  3.5798e-02  1.4937e-02  4.1099e-02  5.5302e-01  3.5765e-02  5.8486e-03  3.9616e-03  0:04:20 1860
   141  3.6735e-02  1.4841e-02  4.0506e-02  5.4643e-01  3.6701e-02  5.7668e-03  3.8662e-03  0:03:28 1859
   142  3.7302e-02  1.4651e-02  4.0158e-02  5.3746e-01  3.7267e-02  5.6945e-03  3.8027e-03  0:02:46 1858
   143  3.7289e-02  1.4544e-02  4.0306e-02  5.3071e-01  3.7253e-02  5.6523e-03  3.7472e-03  0:02:13 1857

  iter  continuity  x-velocity  y-velocity  z-velocity      energy           k       omega     time/iter
   144  3.6596e-02  1.4484e-02  4.0690e-02  5.2444e-01  3.6560e-02  5.5989e-03  3.6948e-03  0:01:46 1856
   145  3.5392e-02  1.4567e-02  4.1019e-02  5.2473e-01  3.5357e-02  5.5346e-03  3.6089e-03  0:01:25 1855
   146  3.3489e-02  1.4689e-02  4.1252e-02  5.3052e-01  3.3455e-02  5.4614e-03  3.5638e-03  0:01:08 1854
   147  3.1277e-02  1.4700e-02  4.1391e-02  9.2773e-01  3.1244e-02  5.4160e-03  3.5339e-03  0:00:54 1853
   148  2.9336e-02  1.4672e-02  4.1231e-02  8.4480e-01  2.9303e-02  5.3508e-03  3.5063e-03  0:00:44 1852
   149  2.8128e-02  1.4634e-02  4.0828e-02  8.1307e-01  2.8096e-02  5.2761e-03  3.4930e-03  0:00:35 1851
   150  2.8101e-02  1.4615e-02  4.0470e-02  8.6942e-01  2.8069e-02  5.2381e-03  3.4844e-03  0:06:38 1850
   151  2.9069e-02  1.4539e-02  3.9835e-02  9.4603e-01  2.9037e-02  5.2125e-03  3.4961e-03  0:05:18 1849
   152  3.0681e-02  1.4280e-02  3.9063e-02  9.7531e-01  3.0648e-02  5.1744e-03  3.5262e-03  0:04:14 1848
   153  3.2331e-02  1.3872e-02  3.8527e-02  9.7508e-01  3.2297e-02  5.1438e-03  3.5471e-03  0:03:23 1847
   154  3.4299e-02  1.3569e-02  3.8119e-02  9.7307e-01  3.4264e-02  5.1404e-03  3.5501e-03  0:02:43 1846

  iter  continuity  x-velocity  y-velocity  z-velocity      energy           k       omega     time/iter
   155  3.6560e-02  1.3299e-02  3.7658e-02  9.4168e-01  3.6524e-02  5.1430e-03  3.5589e-03  0:02:10 1845
   156  3.8519e-02  1.3014e-02  3.7531e-02  9.0889e-01  3.8482e-02  5.0862e-03  3.5202e-03  0:01:44 1844
   157  4.0160e-02  1.2712e-02  3.7513e-02  8.7018e-01  4.0122e-02  5.0897e-03  3.5415e-03  0:01:23 1843
   158  4.1451e-02  1.2436e-02  3.7831e-02  9.2486e-01  4.1411e-02  5.0794e-03  3.5492e-03  0:01:06 1842
   159  4.1989e-02  1.2244e-02  3.8227e-02  8.6989e-01  4.1948e-02  5.0928e-03  3.5490e-03  0:00:53 1841
   160  4.1541e-02  1.2140e-02  3.8863e-02  8.2192e-01  4.1500e-02  5.0559e-03  3.5260e-03  0:00:42 1840
   161  3.9995e-02  1.2014e-02  3.9658e-02  8.1193e-01  3.9954e-02  5.0591e-03  3.4876e-03  0:06:42 1839
   162  3.7714e-02  1.1947e-02  4.0334e-02  7.9600e-01  3.7674e-02  5.0330e-03  3.4797e-03  0:05:21 1838
   163  3.5048e-02  1.1949e-02  4.0793e-02  8.2549e-01  3.5012e-02  5.0293e-03  3.4879e-03  0:04:17 1837
   164  3.1400e-02  1.1940e-02  4.1288e-02  8.2237e-01  3.1367e-02  4.9916e-03  3.5361e-03  0:03:25 1836
   165  2.9396e-02  1.1971e-02  4.1165e-02  8.1439e-01  2.9365e-02  4.9723e-03  3.5259e-03  0:02:44 1835

  iter  continuity  x-velocity  y-velocity  z-velocity      energy           k       omega     time/iter
   166  2.8300e-02  1.2019e-02  4.0621e-02  7.9284e-01  2.8271e-02  4.9210e-03  3.4794e-03  0:02:11 1834
   167  2.8615e-02  1.2055e-02  3.9817e-02  7.5543e-01  2.8587e-02  4.8879e-03  3.4854e-03  0:01:45 1833
   168  2.9634e-02  1.2054e-02  3.8903e-02  7.2314e-01  2.9606e-02  4.8379e-03  3.4508e-03  0:01:24 1832
   169  3.0302e-02  1.2060e-02  3.7721e-02  6.8771e-01  3.0274e-02  4.7649e-03  3.3916e-03  0:01:07 1831
   170  3.0896e-02  1.1949e-02  3.6272e-02  6.6507e-01  3.0867e-02  4.7193e-03  3.3507e-03  0:00:54 1830
   171  3.1783e-02  1.1787e-02  3.4912e-02  6.4182e-01  3.1753e-02  4.6867e-03  3.3293e-03  0:00:43 1829
   172  3.2738e-02  1.1804e-02  3.3963e-02  6.2658e-01  3.2708e-02  4.6460e-03  3.2894e-03  0:06:40 1828
   173  3.3702e-02  1.1756e-02  3.2957e-02  6.2263e-01  3.3672e-02  4.6403e-03  3.2569e-03  0:05:20 1827
   174  3.4353e-02  1.1728e-02  3.2097e-02  6.2504e-01  3.4322e-02  4.5567e-03  3.1647e-03  0:04:16 1826
   175  3.4713e-02  1.1640e-02  3.1637e-02  6.3223e-01  3.4681e-02  4.5418e-03  3.1312e-03  0:03:24 1825
   176  3.4496e-02  1.1568e-02  3.1700e-02  6.4592e-01  3.4463e-02  4.5295e-03  3.0861e-03  0:02:43 1824

  iter  continuity  x-velocity  y-velocity  z-velocity      energy           k       omega     time/iter
   177  3.3527e-02  1.1561e-02  3.1953e-02  6.5862e-01  3.3495e-02  4.4758e-03  3.0171e-03  0:02:11 1823
   178  3.1611e-02  1.1627e-02  3.2133e-02  6.6519e-01  3.1581e-02  4.4355e-03  2.9625e-03  0:01:44 1822
   179  2.8927e-02  1.1660e-02  3.2361e-02  6.6731e-01  2.8898e-02  4.3914e-03  2.9303e-03  0:01:24 1821
   180  2.6345e-02  1.1730e-02  3.2532e-02  6.6545e-01  2.6317e-02  4.3744e-03  2.9268e-03  0:01:07 1820
   181  2.4316e-02  1.1723e-02  3.2643e-02  6.6013e-01  2.4289e-02  4.3299e-03  2.9367e-03  0:00:53 1819
   182  2.3390e-02  1.1765e-02  3.2881e-02  6.5428e-01  2.3364e-02  4.3005e-03  2.8960e-03  0:00:43 1818
   183  2.3689e-02  1.1888e-02  3.2975e-02  6.4962e-01  2.3663e-02  4.2949e-03  2.8851e-03  0:00:34 1817
   184  2.4925e-02  1.1911e-02  3.2842e-02  6.4096e-01  2.4900e-02  4.3029e-03  2.9215e-03  0:06:31 1816
   185  2.6256e-02  1.1840e-02  3.2947e-02  6.3417e-01  2.6230e-02  4.2775e-03  2.9493e-03  0:05:12 1815
   186  2.7901e-02  1.1710e-02  3.3212e-02  6.1937e-01  2.7874e-02  4.2655e-03  2.9171e-03  0:04:10 1814
   187  2.9996e-02  1.1593e-02  3.3267e-02  6.0755e-01  2.9967e-02  4.3034e-03  2.9766e-03  0:03:20 1813

  iter  continuity  x-velocity  y-velocity  z-velocity      energy           k       omega     time/iter
   188  3.2217e-02  1.1567e-02  3.3524e-02  6.1026e-01  3.2187e-02  4.3178e-03  3.0078e-03  0:02:40 1812
   189  3.4336e-02  1.1565e-02  3.3846e-02  6.1603e-01  3.4304e-02  4.3584e-03  3.0180e-03  0:02:08 1811
   190  3.6453e-02  1.1716e-02  3.4387e-02  6.2769e-01  3.6420e-02  4.4180e-03  3.0569e-03  0:01:42 1810
   191  3.8136e-02  1.1738e-02  3.4853e-02  6.5352e-01  3.8102e-02  4.4562e-03  3.0961e-03  0:01:22 1809
   192  3.9462e-02  1.1885e-02  3.5674e-02  6.8408e-01  3.9428e-02  4.5273e-03  3.1477e-03  0:01:05 1808
   193  4.0339e-02  1.2032e-02  3.6357e-02  7.1170e-01  4.0304e-02  4.5544e-03  3.1586e-03  0:00:52 1807
   194  4.0550e-02  1.2190e-02  3.7147e-02  7.4604e-01  4.0515e-02  4.5714e-03  3.1437e-03  0:00:42 1806
   195  3.9752e-02  1.2258e-02  3.8152e-02  7.5755e-01  3.9717e-02  4.6076e-03  3.1486e-03  0:00:33 1805
   196  3.8711e-02  1.2424e-02  3.8905e-02  7.6169e-01  3.8678e-02  4.6697e-03  3.1357e-03  0:06:27 1804
   197  3.6848e-02  1.2528e-02  3.9469e-02  7.6237e-01  3.6817e-02  4.6565e-03  3.1435e-03  0:05:10 1803
   198  3.4363e-02  1.2585e-02  3.9838e-02  7.4982e-01  3.4334e-02  4.6667e-03  3.1318e-03  0:04:08 1802

  iter  continuity  x-velocity  y-velocity  z-velocity      energy           k       omega     time/iter
   199  3.2210e-02  1.2591e-02  3.9874e-02  8.2540e-01  3.2182e-02  4.6335e-03  3.1026e-03  0:03:18 1801
   200  2.9776e-02  1.2517e-02  3.9740e-02  7.5684e-01  2.9751e-02  4.5803e-03  3.0501e-03  0:02:38 1800
   201  2.7639e-02  1.2410e-02  3.9469e-02  7.1327e-01  2.7615e-02  4.5985e-03  3.0694e-03  0:02:07 1799
   202  2.6602e-02  1.2278e-02  3.8988e-02  6.7769e-01  2.6579e-02  4.5882e-03  3.0770e-03  0:01:41 1798
   203  2.6301e-02  1.2133e-02  3.8399e-02  6.5608e-01  2.6280e-02  4.5411e-03  3.0566e-03  0:01:21 1797
   204  2.6303e-02  1.1955e-02  3.7735e-02  6.3461e-01  2.6282e-02  4.4798e-03  3.0122e-03  0:01:05 1796
   205  2.6673e-02  1.1747e-02  3.6938e-02  6.1476e-01  2.6652e-02  4.4769e-03  2.9766e-03  0:00:52 1795
   206  2.7526e-02  1.1509e-02  3.6120e-02  5.9881e-01  2.7504e-02  4.4755e-03  2.9981e-03  0:00:41 1794
   207  2.8733e-02  1.1287e-02  3.5402e-02  5.8490e-01  2.8710e-02  4.4499e-03  2.9808e-03  0:06:32 1793
   208  3.0027e-02  1.1187e-02  3.4892e-02  5.8321e-01  3.0004e-02  4.4028e-03  2.9290e-03  0:05:13 1792
   209  3.1630e-02  1.1206e-02  3.4639e-02  5.8587e-01  3.1606e-02  4.4082e-03  2.8856e-03  0:04:10 1791

  iter  continuity  x-velocity  y-velocity  z-velocity      energy           k       omega     time/iter
   210  3.3100e-02  1.1229e-02  3.4515e-02  6.0859e-01  3.3074e-02  4.3840e-03  2.8195e-03  0:03:20 1790
   211  3.4154e-02  1.1242e-02  3.4625e-02  6.2846e-01  3.4127e-02  4.4051e-03  2.7838e-03  0:02:40 1789
   212  3.4916e-02  1.1261e-02  3.5030e-02  6.5505e-01  3.4888e-02  4.3741e-03  2.7192e-03  0:02:08 1788
   213  3.5184e-02  1.1378e-02  3.5727e-02  6.8837e-01  3.5155e-02  4.3493e-03  2.6516e-03  0:01:42 1787
   214  3.4502e-02  1.1578e-02  3.6409e-02  7.1501e-01  3.4474e-02  4.3538e-03  2.6333e-03  0:01:22 1786
   215  3.3319e-02  1.1813e-02  3.7091e-02  7.4023e-01  3.3291e-02  4.3311e-03  2.5840e-03  0:01:05 1785
   216  3.1484e-02  1.2093e-02  3.7676e-02  7.4596e-01  3.1457e-02  4.3190e-03  2.5529e-03  0:00:52 1784
   217  2.9385e-02  1.2335e-02  3.8226e-02  7.4590e-01  2.9359e-02  4.2813e-03  2.5167e-03  0:00:42 1783
   218  2.7022e-02  1.2485e-02  3.8538e-02  7.3881e-01  2.6996e-02  4.2736e-03  2.4958e-03  0:06:30 1782
   219  2.5440e-02  1.2639e-02  3.8627e-02  7.3513e-01  2.5414e-02  4.2704e-03  2.4958e-03  0:05:12 1781
   220  2.4834e-02  1.2746e-02  3.8630e-02  7.2511e-01  2.4808e-02  4.2543e-03  2.4914e-03  0:04:09 1780

  iter  continuity  x-velocity  y-velocity  z-velocity      energy           k       omega     time/iter
   221  2.5205e-02  1.2919e-02  3.8589e-02  7.2421e-01  2.5180e-02  4.2472e-03  2.5224e-03  0:03:19 1779
   222  2.6465e-02  1.2915e-02  3.8338e-02  7.1688e-01  2.6440e-02  4.2586e-03  2.5480e-03  0:02:39 1778
   223  2.8182e-02  1.2828e-02  3.7998e-02  7.0489e-01  2.8157e-02  4.2476e-03  2.5822e-03  0:02:07 1777
   224  2.9920e-02  1.2630e-02  3.7808e-02  6.9592e-01  2.9894e-02  4.2699e-03  2.6157e-03  0:01:42 1776
   225  3.1832e-02  1.2547e-02  3.7754e-02  7.0528e-01  3.1806e-02  4.3135e-03  2.6637e-03  0:01:21 1775
   226  3.3855e-02  1.2501e-02  3.7396e-02  7.1255e-01  3.3829e-02  4.3416e-03  2.6934e-03  0:01:05 1774
   227  3.5913e-02  1.2460e-02  3.7350e-02  7.3189e-01  3.5886e-02  4.3790e-03  2.7415e-03  0:00:52 1773
   228  3.7620e-02  1.2332e-02  3.7642e-02  7.5408e-01  3.7592e-02  4.4181e-03  2.7668e-03  0:00:42 1772
   229  3.9171e-02  1.2322e-02  3.8086e-02  8.0201e-01  3.9143e-02  4.4813e-03  2.7987e-03  0:00:33 1771
   230  3.9986e-02  1.2303e-02  3.8440e-02  8.7140e-01  3.9956e-02  4.5165e-03  2.8121e-03  0:06:21 1770
   231  4.0063e-02  1.2336e-02  3.8992e-02  9.3187e-01  4.0033e-02  4.5252e-03  2.8394e-03  0:05:04 1769

  iter  continuity  x-velocity  y-velocity  z-velocity      energy           k       omega     time/iter
   232  3.9232e-02  1.2296e-02  3.9558e-02  9.8978e-01  3.9202e-02  4.5649e-03  2.8452e-03  0:04:03 1768
   233  3.7865e-02  1.2228e-02  4.0036e-02  1.0443e+00  3.7836e-02  4.5998e-03  2.8394e-03  0:03:15 1767
   234  3.5558e-02  1.2179e-02  4.0601e-02  1.0535e+00  3.5529e-02  4.5906e-03  2.8254e-03  0:02:36 1766
   235  3.2908e-02  1.2197e-02  4.1172e-02  1.0687e+00  3.2880e-02  4.5755e-03  2.8155e-03  0:02:04 1765
   236  3.0123e-02  1.2164e-02  4.1458e-02  1.0807e+00  3.0097e-02  4.5548e-03  2.8080e-03  0:01:39 1764
   237  2.7648e-02  1.2117e-02  4.1512e-02  1.0752e+00  2.7623e-02  4.5306e-03  2.8232e-03  0:01:20 1763
   238  2.6279e-02  1.2167e-02  4.1413e-02  1.0612e+00  2.6255e-02  4.5277e-03  2.8331e-03  0:06:56 1762
   239  2.5491e-02  1.2151e-02  4.1130e-02  1.0582e+00  2.5468e-02  4.5208e-03  2.8142e-03  0:05:33 1761
   240  2.5499e-02  1.2084e-02  4.0592e-02  1.0581e+00  2.5477e-02  4.4910e-03  2.8340e-03  0:04:26 1760
   241  2.6385e-02  1.2053e-02  3.9862e-02  1.0400e+00  2.6363e-02  4.4678e-03  2.8205e-03  0:03:33 1759
   242  2.7494e-02  1.1995e-02  3.9229e-02  1.0084e+00  2.7473e-02  4.4610e-03  2.8147e-03  0:02:50 1758

  iter  continuity  x-velocity  y-velocity  z-velocity      energy           k       omega     time/iter
   243  2.8623e-02  1.1928e-02  3.8431e-02  9.8946e-01  2.8601e-02  4.4473e-03  2.7871e-03  0:02:16 1757
   244  2.9442e-02  1.1706e-02  3.7362e-02  9.6029e-01  2.9421e-02  4.4589e-03  2.8122e-03  0:01:49 1756
   245  3.0779e-02  1.1513e-02  3.6394e-02  9.4355e-01  3.0757e-02  4.4308e-03  2.8207e-03  0:01:27 1755
   246  3.2128e-02  1.1495e-02  3.5713e-02  9.2234e-01  3.2106e-02  4.4410e-03  2.7982e-03  0:01:09 1754
   247  3.3566e-02  1.1438e-02  3.5229e-02  9.1780e-01  3.3543e-02  4.4032e-03  2.7299e-03  0:00:56 1753
   248  3.4679e-02  1.1347e-02  3.4642e-02  9.2319e-01  3.4656e-02  4.4002e-03  2.6876e-03  0:00:44 1752
   249  3.5897e-02  1.1289e-02  3.4285e-02  9.2718e-01  3.5873e-02  4.4025e-03  2.6644e-03  0:00:36 1751
   250  3.6517e-02  1.1229e-02  3.4268e-02  9.4207e-01  3.6492e-02  4.3801e-03  2.6174e-03  0:06:18 1750
   251  3.6087e-02  1.1221e-02  3.4507e-02  9.5135e-01  3.6063e-02  4.3725e-03  2.5720e-03  0:05:03 1749
   252  3.4978e-02  1.1297e-02  3.4571e-02  9.5935e-01  3.4954e-02  4.3349e-03  2.5411e-03  0:04:02 1748
   253  3.2783e-02  1.1297e-02  3.4638e-02  9.5683e-01  3.2759e-02  4.3039e-03  2.5019e-03  0:03:13 1747

  iter  continuity  x-velocity  y-velocity  z-velocity      energy           k       omega     time/iter
   254  3.0143e-02  1.1310e-02  3.4753e-02  9.4077e-01  3.0120e-02  4.2645e-03  2.4740e-03  0:02:35 1746
   255  2.7395e-02  1.1295e-02  3.4648e-02  9.1693e-01  2.7373e-02  4.2543e-03  2.4799e-03  0:02:04 1745
   256  2.5381e-02  1.1283e-02  3.4300e-02  9.0152e-01  2.5360e-02  4.2070e-03  2.4600e-03  0:01:39 1744
   257  2.4603e-02  1.1271e-02  3.3814e-02  8.9231e-01  2.4582e-02  4.1620e-03  2.4380e-03  0:01:19 1743
   258  2.5303e-02  1.1173e-02  3.3319e-02  8.7169e-01  2.5283e-02  4.1492e-03  2.4409e-03  0:01:03 1742
   259  2.6708e-02  1.1008e-02  3.2860e-02  8.5353e-01  2.6687e-02  4.1196e-03  2.4707e-03  0:00:51 1741
   260  2.8025e-02  1.0870e-02  3.2317e-02  8.3381e-01  2.8004e-02  4.1133e-03  2.4979e-03  0:00:40 1740
   261  2.9280e-02  1.0778e-02  3.1798e-02  8.3964e-01  2.9259e-02  4.0738e-03  2.5026e-03  0:06:20 1739
   262  3.0400e-02  1.0629e-02  3.1316e-02  8.2834e-01  3.0378e-02  4.0427e-03  2.5093e-03  0:05:04 1738
   263  3.1508e-02  1.0413e-02  3.1095e-02  8.1464e-01  3.1486e-02  4.0720e-03  2.5060e-03  0:04:03 1737
   264  3.2471e-02  1.0343e-02  3.0758e-02  8.2686e-01  3.2449e-02  4.0938e-03  2.5240e-03  0:03:14 1736

  iter  continuity  x-velocity  y-velocity  z-velocity      energy           k       omega     time/iter
   265  3.3138e-02  1.0243e-02  3.0536e-02  8.4307e-01  3.3115e-02  4.0558e-03  2.5065e-03  0:02:35 1735
   266  3.3111e-02  1.0137e-02  3.0412e-02  8.4400e-01  3.3088e-02  4.0355e-03  2.5135e-03  0:02:04 1734
   267  3.2752e-02  9.9758e-03  3.0390e-02  8.7464e-01  3.2728e-02  4.0129e-03  2.5190e-03  0:01:39 1733
   268  3.1647e-02  9.9024e-03  3.0411e-02  9.0148e-01  3.1623e-02  4.0244e-03  2.4935e-03  0:01:19 1732
   269  2.9649e-02  9.8521e-03  3.0528e-02  9.0912e-01  2.9627e-02  3.9754e-03  2.4876e-03  0:01:03 1731
   270  2.7396e-02  9.8088e-03  3.0562e-02  9.3329e-01  2.7374e-02  3.9792e-03  2.4871e-03  0:00:51 1730
   271  2.4892e-02  9.7313e-03  3.0440e-02  9.6439e-01  2.4872e-02  3.9771e-03  2.5004e-03  0:00:41 1729
   272  2.2807e-02  9.6850e-03  3.0272e-02  9.7004e-01  2.2788e-02  3.9384e-03  2.4992e-03  0:00:32 1728
   273  2.1353e-02  9.6860e-03  3.0073e-02  9.8149e-01  2.1335e-02  3.8849e-03  2.5175e-03  0:06:11 1727
   274  2.1249e-02  9.6279e-03  2.9675e-02  1.0095e+00  2.1232e-02  3.8512e-03  2.4763e-03  0:04:57 1726
   275  2.1733e-02  9.5918e-03  2.9076e-02  1.0144e+00  2.1717e-02  3.8468e-03  2.4642e-03  0:03:57 1725

  iter  continuity  x-velocity  y-velocity  z-velocity      energy           k       omega     time/iter
   276  2.2366e-02  9.5179e-03  2.8365e-02  1.0032e+00  2.2350e-02  3.7992e-03  2.4744e-03  0:03:10 1724
   277  2.3352e-02  9.4465e-03  2.7686e-02  1.0017e+00  2.3337e-02  3.7888e-03  2.4664e-03  0:02:32 1723
   278  2.3965e-02  9.3105e-03  2.6902e-02  9.9004e-01  2.3949e-02  3.7555e-03  2.4470e-03  0:02:01 1722
   279  2.4376e-02  9.1790e-03  2.5972e-02  9.6156e-01  2.4360e-02  3.7146e-03  2.3993e-03  0:01:37 1721
   280  2.4894e-02  9.0662e-03  2.5178e-02  9.3735e-01  2.4878e-02  3.6950e-03  2.3679e-03  0:01:18 1720
   281  2.5647e-02  8.9577e-03  2.4469e-02  9.2351e-01  2.5631e-02  3.6668e-03  2.3416e-03  0:01:02 1719
   282  2.6324e-02  8.8618e-03  2.3882e-02  9.0769e-01  2.6307e-02  3.6561e-03  2.3025e-03  0:00:50 1718
   283  2.6564e-02  8.7664e-03  2.3487e-02  8.9508e-01  2.6547e-02  3.6110e-03  2.2580e-03  0:00:40 1717
   284  2.6416e-02  8.7101e-03  2.3208e-02  8.7630e-01  2.6400e-02  3.5823e-03  2.2225e-03  0:06:15 1716
   285  2.5962e-02  8.6337e-03  2.3000e-02  8.6714e-01  2.5945e-02  3.5679e-03  2.1918e-03  0:05:00 1715
   286  2.5039e-02  8.5783e-03  2.2879e-02  8.6328e-01  2.5023e-02  3.5288e-03  2.1582e-03  0:04:00 1714

  iter  continuity  x-velocity  y-velocity  z-velocity      energy           k       omega     time/iter
   287  2.3637e-02  8.5661e-03  2.2907e-02  8.5784e-01  2.3621e-02  3.5249e-03  2.1484e-03  0:03:12 1713
   288  2.1865e-02  8.5964e-03  2.3045e-02  8.5599e-01  2.1850e-02  3.5132e-03  2.1223e-03  0:02:33 1712
   289  2.0165e-02  8.6741e-03  2.3069e-02  8.6555e-01  2.0151e-02  3.4813e-03  2.1156e-03  0:02:02 1711
   290  1.9028e-02  8.7122e-03  2.2964e-02  8.6773e-01  1.9015e-02  3.4756e-03  2.1068e-03  0:01:38 1710
   291  1.8816e-02  8.7245e-03  2.2881e-02  8.6345e-01  1.8803e-02  3.4494e-03  2.1140e-03  0:01:18 1709
   292  1.9084e-02  8.7254e-03  2.2789e-02  8.6058e-01  1.9071e-02  3.4517e-03  2.1371e-03  0:01:03 1708
   293  1.9958e-02  8.7237e-03  2.2721e-02  8.5261e-01  1.9945e-02  3.4504e-03  2.1604e-03  0:00:50 1707
   294  2.1207e-02  8.7151e-03  2.2578e-02  8.6611e-01  2.1194e-02  3.4315e-03  2.1654e-03  0:00:40 1706
   295  2.2476e-02  8.6783e-03  2.2466e-02  8.5818e-01  2.2462e-02  3.4548e-03  2.2016e-03  0:00:32 1705
   296  2.3984e-02  8.6323e-03  2.2409e-02  8.3812e-01  2.3969e-02  3.4818e-03  2.2265e-03  0:06:06 1704
   297  2.5350e-02  8.5192e-03  2.2320e-02  8.4470e-01  2.5334e-02  3.4810e-03  2.2495e-03  0:04:53 1703

  iter  continuity  x-velocity  y-velocity  z-velocity      energy           k       omega     time/iter
   298  2.6777e-02  8.4377e-03  2.2311e-02  8.5125e-01  2.6761e-02  3.4713e-03  2.2480e-03  0:03:54 1702
   299  2.7915e-02  8.4069e-03  2.2447e-02  8.5939e-01  2.7898e-02  3.4917e-03  2.2572e-03  0:03:07 1701
   300  2.8807e-02  8.3775e-03  2.2636e-02  8.7716e-01  2.8789e-02  3.5144e-03  2.2798e-03  0:02:30 1700
   301  2.9008e-02  8.3286e-03  2.2928e-02  9.3837e-01  2.8991e-02  3.5724e-03  2.2942e-03  0:02:00 1699
   302  2.8894e-02  8.3148e-03  2.3304e-02  9.8148e-01  2.8877e-02  3.5815e-03  2.2848e-03  0:01:36 1698
   303  2.8208e-02  8.3178e-03  2.3574e-02  1.0250e+00  2.8192e-02  3.5931e-03  2.3100e-03  0:01:17 1697
   304  2.6816e-02  8.3006e-03  2.4111e-02  1.0792e+00  2.6800e-02  3.6186e-03  2.3277e-03  0:01:01 1696
   305  2.4868e-02  8.3102e-03  2.4707e-02  1.1122e+00  2.4853e-02  3.6508e-03  2.3480e-03  0:00:49 1695
   306  2.3015e-02  8.3617e-03  2.5023e-02  1.1704e+00  2.3001e-02  3.6485e-03  2.3517e-03  0:00:39 1694
   307  2.1233e-02  8.3934e-03  2.5166e-02  1.1989e+00  2.1221e-02  3.6225e-03  2.3390e-03  0:06:10 1693
   308  2.0133e-02  8.3614e-03  2.5190e-02  1.2125e+00  2.0122e-02  3.6393e-03  2.3784e-03  0:04:56 1692

  iter  continuity  x-velocity  y-velocity  z-velocity      energy           k       omega     time/iter
   309  2.0457e-02  8.3506e-03  2.5013e-02  1.2356e+00  2.0447e-02  3.6405e-03  2.4163e-03  0:03:56 1691
   310  2.0925e-02  8.2644e-03  2.4630e-02  1.2411e+00  2.0914e-02  3.6167e-03  2.4020e-03  0:03:09 1690
   311  2.1568e-02  8.2122e-03  2.4201e-02  1.2342e+00  2.1557e-02  3.5663e-03  2.3645e-03  0:02:31 1689
   312  2.2498e-02  8.1623e-03  2.3679e-02  1.2346e+00  2.2487e-02  3.5391e-03  2.3706e-03  0:02:01 1688
   313  2.3759e-02  8.1263e-03  2.3148e-02  1.2280e+00  2.3748e-02  3.5176e-03  2.3318e-03  0:01:37 1687
   314  2.4864e-02  8.0705e-03  2.2655e-02  1.2120e+00  2.4852e-02  3.5157e-03  2.3190e-03  0:01:17 1686
   315  2.5747e-02  8.0449e-03  2.2241e-02  1.1883e+00  2.5734e-02  3.4589e-03  2.2824e-03  0:01:02 1685
   316  2.6379e-02  8.0853e-03  2.1963e-02  1.1752e+00  2.6367e-02  3.4188e-03  2.2300e-03  0:00:49 1684
   317  2.6771e-02  8.1094e-03  2.1777e-02  1.1654e+00  2.6758e-02  3.4073e-03  2.2036e-03  0:00:39 1683
   318  2.6884e-02  8.1291e-03  2.1778e-02  1.1516e+00  2.6871e-02  3.3612e-03  2.1679e-03  0:06:08 1682
   319  2.6307e-02  8.1681e-03  2.1997e-02  1.1462e+00  2.6294e-02  3.3248e-03  2.1258e-03  0:04:54 1681

  iter  continuity  x-velocity  y-velocity  z-velocity      energy           k       omega     time/iter
   320  2.5038e-02  8.2842e-03  2.2411e-02  1.1408e+00  2.5025e-02  3.3282e-03  2.1053e-03  0:03:55 1680
   321  2.3342e-02  8.4687e-03  2.2835e-02  1.1541e+00  2.3329e-02  3.3085e-03  2.0908e-03  0:03:08 1679
   322  2.1287e-02  8.6504e-03  2.3209e-02  1.1669e+00  2.1276e-02  3.3030e-03  2.0904e-03  0:02:30 1678
   323  1.9413e-02  8.8150e-03  2.3503e-02  1.1732e+00  1.9402e-02  3.2705e-03  2.0722e-03  0:02:00 1677
   324  1.8476e-02  8.9393e-03  2.3745e-02  1.1812e+00  1.8465e-02  3.2424e-03  2.0638e-03  0:01:36 1676
   325  1.8488e-02  9.0224e-03  2.3880e-02  1.1857e+00  1.8477e-02  3.2519e-03  2.0697e-03  0:01:17 1675
   326  1.9362e-02  9.1385e-03  2.4087e-02  1.1755e+00  1.9351e-02  3.2797e-03  2.1081e-03  0:01:01 1674
   327  2.0838e-02  9.2432e-03  2.4204e-02  1.1935e+00  2.0827e-02  3.2744e-03  2.1216e-03  0:00:49 1673
   328  2.2601e-02  9.2980e-03  2.4234e-02  1.2083e+00  2.2590e-02  3.3038e-03  2.1780e-03  0:00:39 1672
   329  2.4561e-02  9.3159e-03  2.4342e-02  1.1968e+00  2.4549e-02  3.3183e-03  2.2052e-03  0:06:06 1671
   330  2.6515e-02  9.2778e-03  2.4508e-02  1.1890e+00  2.6502e-02  3.3522e-03  2.2174e-03  0:04:52 1670

  iter  continuity  x-velocity  y-velocity  z-velocity      energy           k       omega     time/iter
   331  2.8390e-02  9.2487e-03  2.4592e-02  1.2183e+00  2.8377e-02  3.3863e-03  2.2542e-03  0:03:54 1669
   332  3.0142e-02  9.2775e-03  2.4859e-02  1.2581e+00  3.0129e-02  3.4506e-03  2.3024e-03  0:03:07 1668
   333  3.1509e-02  9.3001e-03  2.5203e-02  1.3048e+00  3.1496e-02  3.4749e-03  2.3331e-03  0:02:29 1667
   334  3.2489e-02  9.3635e-03  2.5690e-02  1.3708e+00  3.2475e-02  3.5305e-03  2.3575e-03  0:01:59 1666
   335  3.2752e-02  9.3668e-03  2.6327e-02  1.4796e+00  3.2739e-02  3.5744e-03  2.3440e-03  0:01:35 1665
   336  3.2571e-02  9.4630e-03  2.6942e-02  1.5741e+00  3.2558e-02  3.6088e-03  2.3493e-03  0:01:16 1664
   337  3.1839e-02  9.5584e-03  2.7543e-02  1.6573e+00  3.1826e-02  3.6606e-03  2.3920e-03  0:01:01 1663
   338  3.0171e-02  9.5838e-03  2.8335e-02  1.7282e+00  3.0159e-02  3.6944e-03  2.4278e-03  0:00:49 1662
   339  2.8218e-02  9.6594e-03  2.9152e-02  1.8025e+00  2.8207e-02  3.7409e-03  2.4362e-03  0:00:39 1661
   340  2.6082e-02  9.7410e-03  2.9652e-02  1.8922e+00  2.6072e-02  3.7428e-03  2.4401e-03  0:06:03 1660
   341  2.3905e-02  9.7645e-03  2.9983e-02  5.3237e+00  2.3895e-02  3.7576e-03  2.4461e-03  0:04:50 1659

  iter  continuity  x-velocity  y-velocity  z-velocity      energy           k       omega     time/iter
   342  2.2607e-02  9.7459e-03  3.0108e-02  5.1378e+00  2.2599e-02  3.7846e-03  2.4709e-03  0:03:52 1658
   343  2.2592e-02  9.7682e-03  2.9885e-02  4.9059e+00  2.2584e-02  3.7810e-03  2.4884e-03  0:03:06 1657
   344  2.3054e-02  9.6496e-03  2.9501e-02  4.5287e+00  2.3046e-02  3.7395e-03  2.4664e-03  0:02:28 1656
   345  2.3634e-02  9.5201e-03  2.9069e-02  3.9389e+00  2.3626e-02  3.7079e-03  2.4618e-03  0:01:59 1655
   346  2.4693e-02  9.4728e-03  2.8558e-02  3.7020e+00  2.4685e-02  3.6925e-03  2.4508e-03  0:01:35 1654
   347  2.5847e-02  9.4174e-03  2.8018e-02  3.3589e+00  2.5838e-02  3.6986e-03  2.4377e-03  0:01:16 1653
   348  2.7115e-02  9.3408e-03  2.7485e-02  3.0903e+00  2.7106e-02  3.6693e-03  2.3968e-03  0:01:01 1652
   349  2.8284e-02  9.3043e-03  2.6992e-02  3.0601e+00  2.8275e-02  3.6595e-03  2.3600e-03  0:00:48 1651
   350  2.9281e-02  9.3327e-03  2.6743e-02  3.2343e+00  2.9270e-02  3.6280e-03  2.3394e-03  0:06:09 1650
   351  2.9910e-02  9.3968e-03  2.6781e-02  3.5325e+00  2.9900e-02  3.5832e-03  2.2775e-03  0:04:55 1649
   352  3.0096e-02  9.5157e-03  2.6912e-02  3.8501e+00  3.0085e-02  3.5746e-03  2.2509e-03  0:03:56 1648

  iter  continuity  x-velocity  y-velocity  z-velocity      energy           k       omega     time/iter
   353  2.9721e-02  9.5957e-03  2.7105e-02  4.0479e+00  2.9710e-02  3.5565e-03  2.2112e-03  0:03:08 1647
   354  2.8778e-02  9.7132e-03  2.7569e-02  4.2022e+00  2.8767e-02  3.5465e-03  2.1923e-03  0:02:31 1646
   355  2.7288e-02  9.8706e-03  2.8190e-02  4.3283e+00  2.7276e-02  3.5582e-03  2.1717e-03  0:02:00 1645
   356  2.5290e-02  1.0084e-02  2.8806e-02  4.4495e+00  2.5278e-02  3.5124e-03  2.1572e-03  0:01:36 1644
   357  2.3270e-02  1.0299e-02  2.9295e-02  4.4915e+00  2.3259e-02  3.4883e-03  2.1351e-03  0:01:17 1643
   358  2.1505e-02  1.0525e-02  2.9755e-02  4.5572e+00  2.1494e-02  3.4769e-03  2.1183e-03  0:01:02 1642
   359  2.0736e-02  1.0669e-02  2.9920e-02  4.5985e+00  2.0725e-02  3.4975e-03  2.1255e-03  0:00:49 1641
   360  2.1263e-02  1.0734e-02  2.9939e-02  4.6146e+00  2.1252e-02  3.5025e-03  2.1525e-03  0:00:39 1640
   361  2.2447e-02  1.0738e-02  3.0032e-02  4.5569e+00  2.2436e-02  3.4908e-03  2.1928e-03  0:05:59 1639
   362  2.4113e-02  1.0788e-02  3.0132e-02  4.5387e+00  2.4102e-02  3.4827e-03  2.2110e-03  0:04:47 1638
   363  2.5987e-02  1.0817e-02  2.9983e-02  4.6143e+00  2.5977e-02  3.5060e-03  2.2539e-03  0:03:50 1637

  iter  continuity  x-velocity  y-velocity  z-velocity      energy           k       omega     time/iter
   364  2.8078e-02  1.0775e-02  2.9863e-02  4.6203e+00  2.8067e-02  3.5250e-03  2.2837e-03  0:03:04 1636
   365  3.0194e-02  1.0681e-02  2.9957e-02  4.7926e+00  3.0184e-02  3.5476e-03  2.3011e-03  0:02:27 1635
   366  3.2117e-02  1.0627e-02  3.0075e-02  4.5645e+00  3.2106e-02  3.6131e-03  2.3428e-03  0:01:57 1634
   367  3.3971e-02  1.0644e-02  3.0270e-02  4.5712e+00  3.3960e-02  3.6679e-03  2.3893e-03  0:01:34 1633
   368  3.5198e-02  1.0614e-02  3.0579e-02  4.5451e+00  3.5187e-02  3.6751e-03  2.4314e-03  0:01:15 1632
   369  3.6011e-02  1.0636e-02  3.1015e-02  4.5353e+00  3.5999e-02  3.7354e-03  2.4474e-03  0:01:00 1631
   370  3.6150e-02  1.0607e-02  3.1721e-02  4.5489e+00  3.6138e-02  3.7491e-03  2.4433e-03  0:00:48 1630
   371  3.5527e-02  1.0643e-02  3.2484e-02  4.5999e+00  3.5515e-02  3.7919e-03  2.4402e-03  0:00:38 1629
   372  3.4038e-02  1.0692e-02  3.3141e-02  4.6870e+00  3.4026e-02  3.8246e-03  2.4695e-03  0:05:56 1628
   373  3.1965e-02  1.0701e-02  3.3721e-02  4.7570e+00  3.1953e-02  3.8394e-03  2.4890e-03  0:04:45 1627
   374  2.9284e-02  1.0689e-02  3.4421e-02  4.7877e+00  2.9271e-02  3.8403e-03  2.5175e-03  0:03:48 1626

  iter  continuity  x-velocity  y-velocity  z-velocity      energy           k       omega     time/iter
   375  2.6405e-02  1.0702e-02  3.4954e-02  4.7624e+00  2.6392e-02  3.8622e-03  2.4946e-03  0:03:02 1625
   376  2.4325e-02  1.0734e-02  3.5128e-02  4.8783e+00  2.4313e-02  3.8825e-03  2.5106e-03  0:02:26 1624
   377  2.3447e-02  1.0684e-02  3.5007e-02  4.9503e+00  2.3436e-02  3.8573e-03  2.5353e-03  0:01:56 1623
   378  2.3830e-02  1.0686e-02  3.4731e-02  4.9241e+00  2.3819e-02  3.8692e-03  2.5699e-03  0:01:33 1622
   379  2.4649e-02  1.0682e-02  3.4220e-02  4.8872e+00  2.4639e-02  3.8235e-03  2.5555e-03  0:01:14 1621
   380  2.5859e-02  1.0573e-02  3.3541e-02  4.8955e+00  2.5849e-02  3.8387e-03  2.5360e-03  0:00:59 1620
   381  2.7234e-02  1.0415e-02  3.2786e-02  4.8907e+00  2.7224e-02  3.7965e-03  2.5383e-03  0:00:48 1619
   382  2.8602e-02  1.0409e-02  3.2153e-02  4.7983e+00  2.8593e-02  3.8273e-03  2.5444e-03  0:00:38 1618
   383  2.9943e-02  1.0363e-02  3.1444e-02  4.8113e+00  2.9933e-02  3.8064e-03  2.5429e-03  0:05:54 1617
   384  3.1151e-02  1.0310e-02  3.0777e-02  4.8062e+00  3.1141e-02  3.8219e-03  2.4765e-03  0:04:43 1616
   385  3.2196e-02  1.0277e-02  3.0228e-02  4.7748e+00  3.2185e-02  3.7891e-03  2.4401e-03  0:03:46 1615

  iter  continuity  x-velocity  y-velocity  z-velocity      energy           k       omega     time/iter
   386  3.2690e-02  1.0290e-02  3.0120e-02  4.7634e+00  3.2679e-02  3.7739e-03  2.3966e-03  0:03:01 1614
   387  3.2793e-02  1.0325e-02  3.0213e-02  4.8684e+00  3.2781e-02  3.7613e-03  2.3599e-03  0:02:25 1613
   388  3.2114e-02  1.0366e-02  3.0226e-02  4.9604e+00  3.2101e-02  3.7703e-03  2.3536e-03  0:01:56 1612
   389  3.0811e-02  1.0393e-02  3.0396e-02  5.0481e+00  3.0799e-02  3.7396e-03  2.3040e-03  0:01:32 1611
   390  2.8818e-02  1.0447e-02  3.0730e-02  5.0568e+00  2.8804e-02  3.7091e-03  2.2796e-03  0:01:14 1610
   391  2.6230e-02  1.0520e-02  3.0977e-02  5.0585e+00  2.6216e-02  3.7003e-03  2.2897e-03  0:00:59 1609
   392  2.3968e-02  1.0611e-02  3.1040e-02  5.1044e+00  2.3955e-02  3.6674e-03  2.2672e-03  0:00:47 1608
   393  2.2410e-02  1.0674e-02  3.0934e-02  5.1788e+00  2.2398e-02  3.6570e-03  2.2538e-03  0:00:38 1607
   394  2.2433e-02  1.0667e-02  3.0621e-02  5.1677e+00  2.2421e-02  3.6245e-03  2.2382e-03  0:05:51 1606
   395  2.3481e-02  1.0588e-02  3.0381e-02  5.1289e+00  2.3469e-02  3.6081e-03  2.2658e-03  0:04:41 1605
   396  2.5006e-02  1.0531e-02  3.0131e-02  5.0861e+00  2.4994e-02  3.6168e-03  2.3001e-03  0:03:45 1604

  iter  continuity  x-velocity  y-velocity  z-velocity      energy           k       omega     time/iter
   397  2.6704e-02  1.0496e-02  2.9743e-02  5.2059e+00  2.6693e-02  3.5898e-03  2.3147e-03  0:03:00 1603
   398  2.8460e-02  1.0406e-02  2.9392e-02  5.2009e+00  2.8448e-02  3.5871e-03  2.3252e-03  0:02:24 1602
   399  3.0106e-02  1.0268e-02  2.9274e-02  5.1498e+00  3.0094e-02  3.5808e-03  2.3380e-03  0:01:55 1601
   400  3.1585e-02  1.0156e-02  2.9055e-02  5.2097e+00  3.1573e-02  3.5923e-03  2.3395e-03  0:01:32 1600
   401  3.2831e-02  1.0067e-02  2.8927e-02  5.3783e+00  3.2819e-02  3.5732e-03  2.3472e-03  0:01:13 1599
   402  3.3536e-02  9.9717e-03  2.8899e-02  5.3921e+00  3.3523e-02  3.5767e-03  2.3681e-03  0:00:59 1598
   403  3.3802e-02  9.8875e-03  2.9060e-02  5.6209e+00  3.3789e-02  3.6056e-03  2.3778e-03  0:00:47 1597
   404  3.3347e-02  9.8135e-03  2.9387e-02  5.9533e+00  3.3333e-02  3.5912e-03  2.3585e-03  0:00:37 1596
   405  3.1934e-02  9.7894e-03  2.9667e-02  6.1286e+00  3.1920e-02  3.5732e-03  2.3216e-03  0:05:49 1595
   406  3.0093e-02  9.7477e-03  2.9782e-02  6.3243e+00  3.0079e-02  3.5476e-03  2.3312e-03  0:04:39 1594
   407  2.7406e-02  9.6585e-03  3.0034e-02  7.0702e+00  2.7392e-02  3.5671e-03  2.3525e-03  0:03:43 1593

  iter  continuity  x-velocity  y-velocity  z-velocity      energy           k       omega     time/iter
   408  2.4600e-02  9.6376e-03  3.0286e-02  7.4156e+00  2.4586e-02  3.5455e-03  2.3845e-03  0:02:58 1592
   409  2.2359e-02  9.6506e-03  3.0216e-02  7.6180e+00  2.2346e-02  3.5273e-03  2.3799e-03  0:02:23 1591
   410  2.1528e-02  9.6014e-03  2.9944e-02  7.8563e+00  2.1516e-02  3.4767e-03  2.3346e-03  0:01:54 1590
   411  2.1960e-02  9.5654e-03  2.9512e-02  7.7169e+00  2.1948e-02  3.4525e-03  2.3518e-03  0:01:31 1589
   412  2.2980e-02  9.5103e-03  2.8911e-02  7.6741e+00  2.2969e-02  3.4505e-03  2.3735e-03  0:01:13 1588
   413  2.4176e-02  9.4195e-03  2.8253e-02  7.4612e+00  2.4165e-02  3.4082e-03  2.3597e-03  0:00:58 1587
   414  2.5163e-02  9.3451e-03  2.7412e-02  7.2580e+00  2.5153e-02  3.3958e-03  2.3264e-03  0:00:47 1586
   415  2.5904e-02  9.2487e-03  2.6587e-02  7.0443e+00  2.5893e-02  3.3546e-03  2.3179e-03  0:00:37 1585
   416  2.6825e-02  9.1587e-03  2.5822e-02  6.8332e+00  2.6814e-02  3.3462e-03  2.2749e-03  0:05:47 1584
   417  2.7770e-02  9.0869e-03  2.5124e-02  6.6455e+00  2.7758e-02  3.3321e-03  2.2450e-03  0:04:37 1583
   418  2.8299e-02  9.0188e-03  2.4574e-02  6.4587e+00  2.8287e-02  3.3027e-03  2.2153e-03  0:03:42 1582

  iter  continuity  x-velocity  y-velocity  z-velocity      energy           k       omega     time/iter
   419  2.8448e-02  8.9898e-03  2.4251e-02  6.3435e+00  2.8436e-02  3.2622e-03  2.1623e-03  0:02:57 1581
   420  2.8158e-02  8.9260e-03  2.4018e-02  6.2607e+00  2.8145e-02  3.2596e-03  2.1331e-03  0:02:22 1580
   421  2.7372e-02  8.8664e-03  2.3891e-02  6.1916e+00  2.7360e-02  3.2352e-03  2.1206e-03  0:01:53 1579
   422  2.5968e-02  8.8244e-03  2.3930e-02  6.1511e+00  2.5956e-02  3.1986e-03  2.0697e-03  0:01:31 1578
   423  2.3971e-02  8.8513e-03  2.4126e-02  6.0881e+00  2.3958e-02  3.1947e-03  2.0537e-03  0:01:12 1577
   424  2.1840e-02  8.9167e-03  2.4262e-02  6.1269e+00  2.1828e-02  3.1701e-03  2.0405e-03  0:00:58 1576
   425  1.9932e-02  8.9969e-03  2.4225e-02  6.1871e+00  1.9921e-02  3.1495e-03  2.0263e-03  0:00:46 1575
   426  1.9115e-02  9.0204e-03  2.4111e-02  6.2081e+00  1.9103e-02  3.1393e-03  2.0235e-03  0:05:52 1574
   427  1.9346e-02  9.0183e-03  2.4019e-02  6.1740e+00  1.9335e-02  3.1401e-03  2.0354e-03  0:04:41 1573
   428  2.0223e-02  8.9962e-03  2.4001e-02  6.1752e+00  2.0212e-02  3.1158e-03  2.0424e-03  0:03:45 1572
   429  2.1637e-02  9.0039e-03  2.3868e-02  6.2584e+00  2.1626e-02  3.0998e-03  2.0616e-03  0:03:00 1571

  iter  continuity  x-velocity  y-velocity  z-velocity      energy           k       omega     time/iter
   430  2.3134e-02  8.9970e-03  2.3742e-02  6.3242e+00  2.3123e-02  3.0989e-03  2.0726e-03  0:02:24 1570
   431  2.4659e-02  8.9497e-03  2.3642e-02  6.2870e+00  2.4648e-02  3.1089e-03  2.1056e-03  0:01:55 1569
   432  2.6218e-02  8.8544e-03  2.3599e-02  6.2115e+00  2.6206e-02  3.1339e-03  2.1342e-03  0:01:32 1568
   433  2.7698e-02  8.7414e-03  2.3516e-02  6.3190e+00  2.7685e-02  3.1343e-03  2.1381e-03  0:01:13 1567
   434  2.8975e-02  8.6946e-03  2.3627e-02  6.3768e+00  2.8962e-02  3.1419e-03  2.1413e-03  0:00:59 1566
   435  2.9937e-02  8.6700e-03  2.3826e-02  6.4833e+00  2.9924e-02  3.1481e-03  2.1503e-03  0:00:47 1565
   436  3.0365e-02  8.6527e-03  2.4144e-02  6.6234e+00  3.0351e-02  3.1847e-03  2.1704e-03  0:00:38 1564
   437  3.0154e-02  8.6141e-03  2.4554e-02  6.8336e+00  3.0140e-02  3.2119e-03  2.1518e-03  0:05:43 1563
   438  2.9566e-02  8.6422e-03  2.4831e-02  7.1198e+00  2.9552e-02  3.2130e-03  2.1566e-03  0:04:34 1562
   439  2.8316e-02  8.6308e-03  2.5292e-02  7.4098e+00  2.8302e-02  3.2481e-03  2.1808e-03  0:03:39 1561
   440  2.6280e-02  8.6255e-03  2.5975e-02  7.5879e+00  2.6267e-02  3.2814e-03  2.2108e-03  0:02:55 1560

  iter  continuity  x-velocity  y-velocity  z-velocity      energy           k       omega     time/iter
   441  2.4178e-02  8.6882e-03  2.6432e-02  8.0014e+00  2.4165e-02  3.2895e-03  2.2250e-03  0:02:20 1559
   442  2.2278e-02  8.7229e-03  2.6550e-02  8.2509e+00  2.2266e-02  3.2726e-03  2.2016e-03  0:01:52 1558
   443  2.0796e-02  8.7065e-03  2.6577e-02  8.3549e+00  2.0785e-02  3.2624e-03  2.2180e-03  0:01:29 1557
   444  2.0708e-02  8.7141e-03  2.6430e-02  8.4169e+00  2.0697e-02  3.2738e-03  2.2596e-03  0:01:12 1556
   445  2.1471e-02  8.6434e-03  2.6078e-02  8.4888e+00  2.1461e-02  3.2679e-03  2.2513e-03  0:00:57 1555
   446  2.2091e-02  8.5792e-03  2.5622e-02  8.4533e+00  2.2080e-02  3.2286e-03  2.2340e-03  0:05:57 1554
   447  2.2955e-02  8.5199e-03  2.5051e-02  8.3862e+00  2.2945e-02  3.2020e-03  2.2221e-03  0:04:45 1553
   448  2.4103e-02  8.4669e-03  2.4459e-02  8.3183e+00  2.4093e-02  3.1643e-03  2.1955e-03  0:03:48 1552
   449  2.5358e-02  8.4098e-03  2.3903e-02  8.3034e+00  2.5347e-02  3.1631e-03  2.1680e-03  0:03:02 1551
   450  2.6330e-02  8.3778e-03  2.3403e-02  8.1853e+00  2.6318e-02  3.1257e-03  2.1364e-03  0:02:26 1550
   451  2.7056e-02  8.3813e-03  2.3066e-02  8.1008e+00  2.7044e-02  3.1017e-03  2.0922e-03  0:01:56 1549

  iter  continuity  x-velocity  y-velocity  z-velocity      energy           k       omega     time/iter
   452  2.7397e-02  8.4286e-03  2.2887e-02  8.0106e+00  2.7385e-02  3.0792e-03  2.0651e-03  0:01:33 1548
   453  2.7462e-02  8.4334e-03  2.2825e-02  7.9075e+00  2.7450e-02  3.0361e-03  2.0252e-03  0:01:14 1547
   454  2.6977e-02  8.4433e-03  2.2962e-02  7.8653e+00  2.6965e-02  3.0195e-03  2.0035e-03  0:01:00 1546
   455  2.5812e-02  8.5116e-03  2.3275e-02  7.8181e+00  2.5800e-02  2.9864e-03  1.9540e-03  0:00:48 1545
   456  2.4043e-02  8.6494e-03  2.3750e-02  7.7707e+00  2.4031e-02  2.9867e-03  1.9442e-03  0:00:38 1544
   457  2.1997e-02  8.8284e-03  2.4080e-02  7.8362e+00  2.1986e-02  2.9820e-03  1.9552e-03  0:05:39 1543
   458  1.9970e-02  8.9902e-03  2.4340e-02  7.8908e+00  1.9959e-02  2.9589e-03  1.9371e-03  0:04:31 1542
   459  1.8798e-02  9.0934e-03  2.4516e-02  7.9653e+00  1.8787e-02  2.9173e-03  1.9201e-03  0:03:37 1541
   460  1.8852e-02  9.1863e-03  2.4603e-02  7.9313e+00  1.8841e-02  2.9249e-03  1.9328e-03  0:02:53 1540
   461  1.9516e-02  9.2195e-03  2.4742e-02  7.9559e+00  1.9505e-02  2.9328e-03  1.9510e-03  0:02:18 1539
   462  2.0972e-02  9.2943e-03  2.4828e-02  7.9881e+00  2.0962e-02  2.9509e-03  1.9878e-03  0:01:51 1538

  iter  continuity  x-velocity  y-velocity  z-velocity      energy           k       omega     time/iter
   463  2.2748e-02  9.3575e-03  2.4826e-02  8.1662e+00  2.2738e-02  2.9644e-03  2.0256e-03  0:01:29 1537
   464  2.4662e-02  9.3478e-03  2.4822e-02  8.2451e+00  2.4651e-02  2.9753e-03  2.0692e-03  0:01:11 1536
   465  2.6660e-02  9.3186e-03  2.4959e-02  8.1550e+00  2.6648e-02  2.9980e-03  2.0843e-03  0:00:57 1535
   466  2.8458e-02  9.2521e-03  2.4988e-02  8.3940e+00  2.8446e-02  3.0319e-03  2.1129e-03  0:00:45 1534
   467  3.0296e-02  9.2308e-03  2.5201e-02  8.6794e+00  3.0283e-02  3.0667e-03  2.1427e-03  0:00:36 1533
   468  3.1631e-02  9.2247e-03  2.5558e-02  8.9745e+00  3.1618e-02  3.1016e-03  2.1760e-03  0:05:35 1532
   469  3.2623e-02  9.2688e-03  2.6009e-02  9.1918e+00  3.2609e-02  3.1522e-03  2.2014e-03  0:04:28 1531
   470  3.2863e-02  9.2875e-03  2.6603e-02  9.7597e+00  3.2849e-02  3.1866e-03  2.1895e-03  0:03:34 1530
   471  3.2531e-02  9.3342e-03  2.7248e-02  1.0295e+01  3.2517e-02  3.2045e-03  2.1822e-03  0:02:51 1529
   472  3.1717e-02  9.3911e-03  2.7804e-02  1.0796e+01  3.1703e-02  3.2547e-03  2.2222e-03  0:02:17 1528
   473  3.0031e-02  9.4085e-03  2.8586e-02  1.1193e+01  3.0017e-02  3.3034e-03  2.2560e-03  0:01:50 1527

  iter  continuity  x-velocity  y-velocity  z-velocity      energy           k       omega     time/iter
   474  2.7773e-02  9.4811e-03  2.9459e-02  1.1609e+01  2.7759e-02  3.3487e-03  2.2707e-03  0:01:28 1526
   475  2.5528e-02  9.5734e-03  2.9931e-02  1.2112e+01  2.5516e-02  3.3566e-03  2.2798e-03  0:01:10 1525
   476  2.3448e-02  9.5991e-03  3.0176e-02  1.2368e+01  2.3436e-02  3.3264e-03  2.2703e-03  0:00:56 1524
   477  2.2255e-02  9.5836e-03  3.0254e-02  1.2533e+01  2.2244e-02  3.3588e-03  2.3007e-03  0:00:45 1523
   478  2.2459e-02  9.6038e-03  3.0017e-02  1.2568e+01  2.2448e-02  3.3743e-03  2.3451e-03  0:00:36 1522
   479  2.3161e-02  9.5067e-03  2.9616e-02  1.2542e+01  2.3150e-02  3.3482e-03  2.3357e-03  0:05:33 1521
   480  2.4071e-02  9.4051e-03  2.9162e-02  1.2468e+01  2.4060e-02  3.3101e-03  2.3115e-03  0:04:26 1520
   481  2.5264e-02  9.3967e-03  2.8577e-02  1.2413e+01  2.5253e-02  3.2920e-03  2.3064e-03  0:03:33 1519
   482  2.6535e-02  9.3452e-03  2.7994e-02  1.2379e+01  2.6524e-02  3.3079e-03  2.2985e-03  0:02:50 1518
   483  2.7846e-02  9.2751e-03  2.7423e-02  1.2336e+01  2.7835e-02  3.2839e-03  2.2682e-03  0:02:16 1517
   484  2.9064e-02  9.2605e-03  2.6875e-02  1.2206e+01  2.9052e-02  3.2813e-03  2.2269e-03  0:01:49 1516

  iter  continuity  x-velocity  y-velocity  z-velocity      energy           k       omega     time/iter
   485  2.9874e-02  9.2912e-03  2.6636e-02  1.2004e+01  2.9862e-02  3.2701e-03  2.2023e-03  0:01:27 1515
   486  3.0331e-02  9.3641e-03  2.6655e-02  1.1957e+01  3.0318e-02  3.2022e-03  2.1521e-03  0:01:09 1514
   487  3.0235e-02  9.4324e-03  2.6697e-02  1.1972e+01  3.0223e-02  3.2328e-03  2.1196e-03  0:00:56 1513
   488  2.9487e-02  9.4890e-03  2.6885e-02  1.1979e+01  2.9474e-02  3.1964e-03  2.0883e-03  0:00:44 1512
   489  2.8157e-02  9.5699e-03  2.7323e-02  1.1914e+01  2.8144e-02  3.1938e-03  2.0651e-03  0:00:35 1511
   490  2.6182e-02  9.7054e-03  2.7819e-02  1.1899e+01  2.6169e-02  3.2128e-03  2.0599e-03  0:05:30 1510
   491  2.3877e-02  9.8515e-03  2.8247e-02  1.2010e+01  2.3865e-02  3.1618e-03  2.0453e-03  0:04:24 1509
   492  2.1664e-02  1.0044e-02  2.8554e-02  1.2158e+01  2.1652e-02  3.1435e-03  2.0270e-03  0:03:31 1508
   493  2.0414e-02  1.0154e-02  2.8669e-02  1.2323e+01  2.0402e-02  3.1269e-03  2.0219e-03  0:02:49 1507
   494  2.0653e-02  1.0212e-02  2.8623e-02  1.2363e+01  2.0642e-02  3.1367e-03  2.0288e-03  0:02:15 1506
   495  2.1672e-02  1.0218e-02  2.8616e-02  1.2353e+01  2.1661e-02  3.1461e-03  2.0656e-03  0:01:48 1505

  iter  continuity  x-velocity  y-velocity  z-velocity      energy           k       omega     time/iter
   496  2.3255e-02  1.0232e-02  2.8670e-02  1.2591e+01  2.3244e-02  3.1480e-03  2.0937e-03  0:01:26 1504
   497  2.5126e-02  1.0263e-02  2.8531e-02  1.2940e+01  2.5115e-02  3.1304e-03  2.1196e-03  0:01:09 1503
   498  2.7149e-02  1.0211e-02  2.8356e-02  1.3115e+01  2.7138e-02  3.1593e-03  2.1522e-03  0:00:55 1502
   499  2.9145e-02  1.0159e-02  2.8437e-02  1.2734e+01  2.9133e-02  3.1708e-03  2.1678e-03  0:00:44 1501
   500  3.1017e-02  1.0078e-02  2.8458e-02  1.2868e+01  3.1005e-02  3.2230e-03  2.1889e-03  0:00:35 1500
   501  3.2749e-02  1.0058e-02  2.8546e-02  1.3079e+01  3.2736e-02  3.2641e-03  2.2205e-03  0:05:28 1499
   502  3.3901e-02  1.0008e-02  2.8818e-02  1.3207e+01  3.3888e-02  3.2749e-03  2.2554e-03  0:04:22 1498
   503  3.4706e-02  1.0017e-02  2.9187e-02  1.3421e+01  3.4692e-02  3.3106e-03  2.2840e-03  0:03:30 1497
   504  3.4752e-02  9.9908e-03  2.9826e-02  1.4182e+01  3.4737e-02  3.3299e-03  2.2627e-03  0:02:48 1496
   505  3.4058e-02  1.0038e-02  3.0462e-02  1.4836e+01  3.4043e-02  3.3613e-03  2.2548e-03  0:02:14 1495
   506  3.2707e-02  1.0082e-02  3.0951e-02  1.5738e+01  3.2692e-02  3.3811e-03  2.2767e-03  0:01:47 1494

  iter  continuity  x-velocity  y-velocity  z-velocity      energy           k       omega     time/iter
   507  3.0553e-02  1.0088e-02  3.1464e-02  1.6172e+01  3.0538e-02  3.4197e-03  2.2946e-03  0:01:26 1493
   508  2.7898e-02  1.0072e-02  3.2162e-02  1.6416e+01  2.7884e-02  3.4260e-03  2.3231e-03  0:01:08 1492
   509  2.5333e-02  1.0138e-02  3.2523e-02  1.6830e+01  2.5319e-02  3.4203e-03  2.3310e-03  0:00:55 1491
   510  2.3372e-02  1.0152e-02  3.2598e-02  1.7220e+01  2.3359e-02  3.4062e-03  2.3082e-03  0:00:44 1490
   511  2.2536e-02  1.0099e-02  3.2469e-02  1.7196e+01  2.2523e-02  3.4194e-03  2.3517e-03  0:00:35 1489
   512  2.3083e-02  1.0128e-02  3.2145e-02  1.7046e+01  2.3072e-02  3.4051e-03  2.3726e-03  0:05:26 1488
   513  2.3936e-02  1.0066e-02  3.1574e-02  1.6878e+01  2.3924e-02  3.3892e-03  2.3737e-03  0:04:20 1487
   514  2.5157e-02  9.9438e-03  3.0908e-02  1.6862e+01  2.5146e-02  3.3748e-03  2.3502e-03  0:03:28 1486
   515  2.6337e-02  9.8586e-03  3.0222e-02  1.6601e+01  2.6325e-02  3.3494e-03  2.3367e-03  0:02:46 1485
   516  2.7551e-02  9.8336e-03  2.9529e-02  1.6223e+01  2.7540e-02  3.3606e-03  2.3351e-03  0:02:13 1484
   517  2.8750e-02  9.7526e-03  2.8871e-02  1.6003e+01  2.8739e-02  3.3670e-03  2.3045e-03  0:01:46 1483

  iter  continuity  x-velocity  y-velocity  z-velocity      energy           k       omega     time/iter
   518  2.9895e-02  9.7229e-03  2.8227e-02  1.5804e+01  2.9883e-02  3.3663e-03  2.2925e-03  0:01:25 1482
   519  3.0723e-02  9.7000e-03  2.7810e-02  1.5393e+01  3.0710e-02  3.3375e-03  2.2344e-03  0:01:08 1481
   520  3.0975e-02  9.7076e-03  2.7785e-02  1.4959e+01  3.0963e-02  3.3056e-03  2.1948e-03  0:00:54 1480
   521  3.0759e-02  9.7597e-03  2.7842e-02  1.4758e+01  3.0746e-02  3.3123e-03  2.1741e-03  0:00:43 1479
   522  2.9864e-02  9.7778e-03  2.7906e-02  1.4743e+01  2.9851e-02  3.2854e-03  2.1401e-03  0:00:35 1478
   523  2.8425e-02  9.8310e-03  2.8161e-02  1.4602e+01  2.8412e-02  3.2879e-03  2.1182e-03  0:00:28 1477
   524  2.6323e-02  9.8854e-03  2.8482e-02  1.4400e+01  2.6310e-02  3.2887e-03  2.0964e-03  0:05:17 1476
   525  2.3967e-02  9.9798e-03  2.8768e-02  1.4313e+01  2.3954e-02  3.2600e-03  2.0841e-03  0:04:14 1475
   526  2.1924e-02  1.0121e-02  2.8881e-02  1.4366e+01  2.1911e-02  3.2435e-03  2.0841e-03  0:03:23 1474
   527  2.0839e-02  1.0181e-02  2.8835e-02  1.4423e+01  2.0827e-02  3.2095e-03  2.0643e-03  0:02:42 1473
   528  2.1293e-02  1.0195e-02  2.8638e-02  1.4390e+01  2.1281e-02  3.2164e-03  2.0655e-03  0:02:10 1472

  iter  continuity  x-velocity  y-velocity  z-velocity      energy           k       omega     time/iter
   529  2.2329e-02  1.0155e-02  2.8551e-02  1.4254e+01  2.2317e-02  3.2224e-03  2.1005e-03  0:01:44 1471
   530  2.3830e-02  1.0114e-02  2.8447e-02  1.4014e+01  2.3819e-02  3.2038e-03  2.1240e-03  0:01:23 1470
   531  2.5577e-02  1.0095e-02  2.8210e-02  1.4241e+01  2.5565e-02  3.2031e-03  2.1456e-03  0:01:06 1469
   532  2.7423e-02  1.0021e-02  2.7990e-02  1.4185e+01  2.7411e-02  3.2254e-03  2.1821e-03  0:00:53 1468
   533  2.9208e-02  9.9379e-03  2.7996e-02  1.3808e+01  2.9195e-02  3.2250e-03  2.1817e-03  0:00:42 1467
   534  3.0880e-02  9.8384e-03  2.7937e-02  1.4027e+01  3.0867e-02  3.2550e-03  2.1986e-03  0:00:34 1466
   535  3.2378e-02  9.7814e-03  2.7967e-02  1.4362e+01  3.2365e-02  3.2708e-03  2.2150e-03  0:05:20 1465
   536  3.3273e-02  9.7039e-03  2.8120e-02  1.4554e+01  3.3259e-02  3.2711e-03  2.2336e-03  0:04:16 1464
   537  3.3801e-02  9.7007e-03  2.8456e-02  1.4968e+01  3.3786e-02  3.3218e-03  2.2582e-03  0:03:25 1463
   538  3.3506e-02  9.6402e-03  2.9004e-02  1.5765e+01  3.3491e-02  3.3193e-03  2.2456e-03  0:02:44 1462
   539  3.2423e-02  9.6651e-03  2.9442e-02  1.6380e+01  3.2407e-02  3.3339e-03  2.2142e-03  0:02:11 1461

  iter  continuity  x-velocity  y-velocity  z-velocity      energy           k       omega     time/iter
   540  3.0917e-02  9.6771e-03  2.9759e-02  1.6952e+01  3.0901e-02  3.3273e-03  2.2386e-03  0:01:45 1460
   541  2.8478e-02  9.6432e-03  3.0221e-02  1.7224e+01  2.8463e-02  3.3598e-03  2.2546e-03  0:01:24 1459
   542  2.5781e-02  9.6365e-03  3.0719e-02  1.7605e+01  2.5766e-02  3.3739e-03  2.2848e-03  0:01:07 1458
   543  2.3466e-02  9.6837e-03  3.0852e-02  1.7903e+01  2.3452e-02  3.3539e-03  2.2821e-03  0:00:53 1457
   544  2.2088e-02  9.6674e-03  3.0774e-02  1.8451e+01  2.2075e-02  3.3105e-03  2.2510e-03  0:00:43 1456
   545  2.1976e-02  9.6370e-03  3.0513e-02  1.8383e+01  2.1963e-02  3.3143e-03  2.2840e-03  0:00:34 1455
   546  2.2741e-02  9.6340e-03  3.0036e-02  1.8369e+01  2.2729e-02  3.3090e-03  2.3155e-03  0:05:18 1454
   547  2.3874e-02  9.5299e-03  2.9446e-02  1.8154e+01  2.3862e-02  3.2750e-03  2.3072e-03  0:04:14 1453
   548  2.5011e-02  9.4416e-03  2.8750e-02  1.7861e+01  2.4999e-02  3.2523e-03  2.2604e-03  0:03:23 1452
   549  2.6002e-02  9.3871e-03  2.7987e-02  1.7633e+01  2.5990e-02  3.2342e-03  2.2616e-03  0:02:43 1451
   550  2.7053e-02  9.3170e-03  2.7301e-02  1.7398e+01  2.7042e-02  3.2351e-03  2.2360e-03  0:02:10 1450

  iter  continuity  x-velocity  y-velocity  z-velocity      energy           k       omega     time/iter
   551  2.8175e-02  9.2493e-03  2.6644e-02  1.7170e+01  2.8163e-02  3.2286e-03  2.2092e-03  0:01:44 1449
   552  2.9091e-02  9.2095e-03  2.6061e-02  1.6907e+01  2.9078e-02  3.1998e-03  2.1840e-03  0:01:23 1448
   553  2.9489e-02  9.1913e-03  2.5798e-02  1.6528e+01  2.9476e-02  3.1693e-03  2.1340e-03  0:01:06 1447
   554  2.9475e-02  9.2269e-03  2.5751e-02  1.6279e+01  2.9462e-02  3.1452e-03  2.0956e-03  0:00:53 1446
   555  2.8911e-02  9.2034e-03  2.5703e-02  1.6211e+01  2.8898e-02  3.1360e-03  2.0811e-03  0:00:42 1445
   556  2.7779e-02  9.2212e-03  2.5791e-02  1.6156e+01  2.7766e-02  3.1081e-03  2.0455e-03  0:00:34 1444
   557  2.6014e-02  9.2485e-03  2.6055e-02  1.6007e+01  2.6000e-02  3.0951e-03  2.0136e-03  0:00:27 1443
   558  2.3797e-02  9.3346e-03  2.6364e-02  1.5859e+01  2.3783e-02  3.0992e-03  2.0164e-03  0:05:10 1442
   559  2.1645e-02  9.4628e-03  2.6505e-02  1.6155e+01  2.1632e-02  3.0560e-03  1.9891e-03  0:04:08 1441
   560  2.0127e-02  9.5513e-03  2.6506e-02  1.6436e+01  2.0115e-02  3.0459e-03  1.9968e-03  0:03:18 1440
   561  2.0002e-02  9.5957e-03  2.6407e-02  1.6405e+01  1.9990e-02  3.0436e-03  1.9909e-03  0:02:38 1439

  iter  continuity  x-velocity  y-velocity  z-velocity      energy           k       omega     time/iter
   562  2.0715e-02  9.5927e-03  2.6318e-02  1.6292e+01  2.0703e-02  3.0354e-03  1.9948e-03  0:02:07 1438
   563  2.1978e-02  9.5660e-03  2.6302e-02  1.6189e+01  2.1966e-02  3.0383e-03  2.0240e-03  0:01:41 1437
   564  2.3629e-02  9.5659e-03  2.6150e-02  1.6520e+01  2.3618e-02  3.0202e-03  2.0418e-03  0:01:21 1436
   565  2.5372e-02  9.5290e-03  2.5987e-02  1.6750e+01  2.5360e-02  3.0362e-03  2.0756e-03  0:01:05 1435
   566  2.7075e-02  9.4817e-03  2.5959e-02  1.6515e+01  2.7062e-02  3.0609e-03  2.1112e-03  0:00:52 1434
   567  2.8752e-02  9.3787e-03  2.5952e-02  1.6606e+01  2.8739e-02  3.0685e-03  2.1210e-03  0:00:41 1433
   568  3.0367e-02  9.3005e-03  2.5887e-02  1.7005e+01  3.0354e-02  3.0752e-03  2.1271e-03  0:00:33 1432
   569  3.1525e-02  9.2471e-03  2.6130e-02  1.7484e+01  3.1511e-02  3.1060e-03  2.1459e-03  0:05:13 1431
   570  3.2356e-02  9.2330e-03  2.6385e-02  1.7885e+01  3.2341e-02  3.1220e-03  2.1680e-03  0:04:10 1430
   571  3.2457e-02  9.2166e-03  2.6869e-02  1.8925e+01  3.2442e-02  3.1603e-03  2.1690e-03  0:03:20 1429
   572  3.1879e-02  9.2280e-03  2.7362e-02  1.9665e+01  3.1864e-02  3.1844e-03  2.1507e-03  0:02:40 1428

  iter  continuity  x-velocity  y-velocity  z-velocity      energy           k       omega     time/iter
   573  3.0845e-02  9.2634e-03  2.7705e-02  2.0555e+01  3.0830e-02  3.1995e-03  2.1587e-03  0:02:08 1427
   574  2.8967e-02  9.2384e-03  2.8234e-02  2.1028e+01  2.8952e-02  3.2182e-03  2.1932e-03  0:01:42 1426
   575  2.6539e-02  9.2386e-03  2.8892e-02  2.1402e+01  2.6524e-02  3.2631e-03  2.2096e-03  0:01:22 1425
   576  2.4230e-02  9.3081e-03  2.9213e-02  2.2096e+01  2.4217e-02  3.2574e-03  2.2268e-03  0:01:05 1424
   577  2.2441e-02  9.3287e-03  2.9279e-02  2.2731e+01  2.2428e-02  3.2160e-03  2.2006e-03  0:00:52 1423
   578  2.1508e-02  9.2859e-03  2.9205e-02  2.2828e+01  2.1495e-02  3.2136e-03  2.2169e-03  0:00:42 1422
   579  2.1861e-02  9.3091e-03  2.8877e-02  2.3017e+01  2.1849e-02  3.2369e-03  2.2661e-03  0:05:18 1421
   580  2.2834e-02  9.2158e-03  2.8403e-02  2.3025e+01  2.2823e-02  3.2061e-03  2.2552e-03  0:04:14 1420
   581  2.3780e-02  9.1300e-03  2.7829e-02  2.2878e+01  2.3768e-02  3.1787e-03  2.2325e-03  0:03:23 1419
   582  2.4751e-02  9.0771e-03  2.7137e-02  2.2668e+01  2.4740e-02  3.1490e-03  2.2090e-03  0:02:42 1418
   583  2.5865e-02  9.0256e-03  2.6493e-02  2.2445e+01  2.5854e-02  3.1276e-03  2.1953e-03  0:02:10 1417

  iter  continuity  x-velocity  y-velocity  z-velocity      energy           k       omega     time/iter
   584  2.7073e-02  8.9569e-03  2.5878e-02  2.2201e+01  2.7061e-02  3.1477e-03  2.1702e-03  0:01:44 1416
   585  2.8150e-02  8.9289e-03  2.5311e-02  2.1905e+01  2.8137e-02  3.1082e-03  2.1345e-03  0:01:23 1415
   586  2.8754e-02  8.9308e-03  2.4999e-02  2.1543e+01  2.8741e-02  3.0914e-03  2.1075e-03  0:01:06 1414
   587  2.8959e-02  8.9858e-03  2.4937e-02  2.1342e+01  2.8946e-02  3.0623e-03  2.0447e-03  0:00:53 1413
   588  2.8734e-02  8.9794e-03  2.4890e-02  2.1198e+01  2.8721e-02  3.0385e-03  2.0295e-03  0:00:42 1412
   589  2.7919e-02  8.9965e-03  2.5014e-02  2.1047e+01  2.7906e-02  3.0335e-03  2.0032e-03  0:00:34 1411
   590  2.6449e-02  9.0439e-03  2.5328e-02  2.0927e+01  2.6436e-02  2.9808e-03  1.9526e-03  0:05:09 1410
   591  2.4413e-02  9.1530e-03  2.5735e-02  2.0831e+01  2.4400e-02  3.0059e-03  1.9651e-03  0:04:07 1409
   592  2.2245e-02  9.2979e-03  2.6015e-02  2.1006e+01  2.2233e-02  2.9762e-03  1.9464e-03  0:03:18 1408
   593  2.0307e-02  9.4469e-03  2.6175e-02  2.1144e+01  2.0295e-02  2.9483e-03  1.9374e-03  0:02:38 1407
   594  1.9533e-02  9.5290e-03  2.6201e-02  2.1222e+01  1.9521e-02  2.9549e-03  1.9301e-03  0:02:06 1406

  iter  continuity  x-velocity  y-velocity  z-velocity      energy           k       omega     time/iter
   595  2.0021e-02  9.5685e-03  2.6163e-02  2.1052e+01  2.0009e-02  2.9375e-03  1.9386e-03  0:01:41 1405
   596  2.0964e-02  9.5590e-03  2.6226e-02  2.0976e+01  2.0952e-02  2.9397e-03  1.9647e-03  0:01:21 1404
   597  2.2523e-02  9.5949e-03  2.6205e-02  2.1106e+01  2.2511e-02  2.9534e-03  1.9933e-03  0:01:04 1403
   598  2.4289e-02  9.6104e-03  2.6112e-02  2.1651e+01  2.4277e-02  2.9605e-03  2.0221e-03  0:00:52 1402
   599  2.6189e-02  9.5879e-03  2.6045e-02  2.1662e+01  2.6177e-02  2.9819e-03  2.0648e-03  0:00:41 1401
   600  2.8091e-02  9.5149e-03  2.6126e-02  2.1474e+01  2.8079e-02  3.0000e-03  2.0803e-03  0:00:33 1400
   601  2.9802e-02  9.4353e-03  2.6102e-02  2.2097e+01  2.9789e-02  3.0181e-03  2.1010e-03  0:05:06 1399
   602  3.1353e-02  9.4108e-03  2.6295e-02  2.2864e+01  3.1340e-02  3.0579e-03  2.1249e-03  0:04:05 1398
   603  3.2435e-02  9.3842e-03  2.6579e-02  2.3540e+01  3.2420e-02  3.0850e-03  2.1469e-03  0:03:16 1397
   604  3.3082e-02  9.4238e-03  2.7042e-02  2.4266e+01  3.3067e-02  3.1351e-03  2.1751e-03  0:02:36 1396
   605  3.2929e-02  9.4046e-03  2.7655e-02  2.5570e+01  3.2914e-02  3.1501e-03  2.1574e-03  0:02:05 1395

  iter  continuity  x-velocity  y-velocity  z-velocity      energy           k       omega     time/iter
   606  3.2230e-02  9.4600e-03  2.8154e-02  2.6706e+01  3.2215e-02  3.1856e-03  2.1491e-03  0:01:40 1394
   607  3.0986e-02  9.4912e-03  2.8638e-02  2.7895e+01  3.0971e-02  3.2005e-03  2.1909e-03  0:01:20 1393
   608  2.8846e-02  9.4819e-03  2.9366e-02  2.8651e+01  2.8832e-02  3.2462e-03  2.2134e-03  0:01:04 1392
   609  2.6418e-02  9.5502e-03  3.0039e-02  2.9953e+01  2.6404e-02  3.2713e-03  2.2402e-03  0:00:51 1391
   610  2.4206e-02  9.6087e-03  3.0259e-02  3.0877e+01  2.4193e-02  3.2557e-03  2.2358e-03  0:00:41 1390
   611  2.2419e-02  9.5952e-03  3.0341e-02  3.1749e+01  2.2407e-02  3.2450e-03  2.2231e-03  0:05:10 1389
   612  2.1983e-02  9.5957e-03  3.0224e-02  3.1832e+01  2.1971e-02  3.2665e-03  2.2645e-03  0:04:08 1388
   613  2.2546e-02  9.5832e-03  2.9821e-02  3.1820e+01  2.2534e-02  3.2728e-03  2.2920e-03  0:03:18 1387
   614  2.3497e-02  9.4658e-03  2.9323e-02  3.1585e+01  2.3486e-02  3.2351e-03  2.2758e-03  0:02:39 1386
   615  2.4532e-02  9.3814e-03  2.8765e-02  3.1021e+01  2.4521e-02  3.2039e-03  2.2508e-03  0:02:07 1385
   616  2.5640e-02  9.3532e-03  2.8100e-02  3.0800e+01  2.5629e-02  3.1909e-03  2.2453e-03  0:01:41 1384

  iter  continuity  x-velocity  y-velocity  z-velocity      energy           k       omega     time/iter
   617  2.6819e-02  9.2838e-03  2.7478e-02  3.0525e+01  2.6808e-02  3.1977e-03  2.2276e-03  0:01:21 1383
   618  2.8046e-02  9.2298e-03  2.6890e-02  3.0285e+01  2.8034e-02  3.1869e-03  2.1964e-03  0:01:05 1382
   619  2.9117e-02  9.2128e-03  2.6373e-02  2.9990e+01  2.9104e-02  3.1615e-03  2.1678e-03  0:00:52 1381
   620  2.9687e-02  9.2421e-03  2.6205e-02  2.9457e+01  2.9675e-02  3.1555e-03  2.1234e-03  0:00:41 1380
   621  2.9861e-02  9.3122e-03  2.6244e-02  2.9282e+01  2.9848e-02  3.0969e-03  2.0828e-03  0:00:33 1379
   622  2.9479e-02  9.3345e-03  2.6273e-02  2.9337e+01  2.9465e-02  3.1154e-03  2.0607e-03  0:05:02 1378
   623  2.8499e-02  9.3887e-03  2.6480e-02  2.9414e+01  2.8486e-02  3.0779e-03  2.0211e-03  0:04:01 1377
   624  2.6895e-02  9.4573e-03  2.6891e-02  2.9496e+01  2.6882e-02  3.0904e-03  1.9915e-03  0:03:13 1376
   625  2.4745e-02  9.5909e-03  2.7328e-02  2.9528e+01  2.4732e-02  3.0942e-03  1.9968e-03  0:02:34 1375
   626  2.2570e-02  9.7410e-03  2.7619e-02  2.9858e+01  2.2557e-02  3.0334e-03  1.9792e-03  0:02:03 1374
[...]
  1838  1.5553e-02  8.0016e-03  2.4826e-02  3.3254e+03  1.5543e-02  2.7373e-03  1.9240e-03  0:00:18  162
  1839  1.5603e-02  7.9869e-03  2.4663e-02  3.2783e+03  1.5593e-02  2.7418e-03  1.9332e-03  0:00:14  161
  1840  1.6111e-02  7.9635e-03  2.4355e-02  3.2250e+03  1.6102e-02  2.7343e-03  1.9140e-03  0:00:11  160
  1841  1.6883e-02  7.9328e-03  2.4011e-02  3.1295e+03  1.6874e-02  2.7247e-03  1.9100e-03  0:00:41  159
  1842  1.7791e-02  7.9246e-03  2.3568e-02  3.0707e+03  1.7782e-02  2.7305e-03  1.9343e-03  0:00:32  158
  1843  1.8764e-02  7.9385e-03  2.3107e-02  3.0262e+03  1.8756e-02  2.7505e-03  1.9183e-03  0:00:26  157
  1844  1.9427e-02  7.9706e-03  2.2663e-02  2.9828e+03  1.9418e-02  2.7143e-03  1.8997e-03  0:00:21  156
  1845  1.9860e-02  7.9764e-03  2.2220e-02  2.9704e+03  1.9850e-02  2.7124e-03  1.8799e-03  0:00:16  155
  1846  2.0124e-02  7.9697e-03  2.1876e-02  3.0063e+03  2.0114e-02  2.6959e-03  1.8475e-03  0:00:13  154
  1847  2.0108e-02  7.9854e-03  2.1639e-02  3.0322e+03  2.0099e-02  2.6891e-03  1.8265e-03  0:00:41  153
  1848  1.9771e-02  7.9968e-03  2.1477e-02  3.0670e+03  1.9761e-02  2.6635e-03  1.7984e-03  0:00:33  152

  iter  continuity  x-velocity  y-velocity  z-velocity      energy           k       omega     time/iter
  1849  1.9038e-02  7.9979e-03  2.1406e-02  3.1091e+03  1.9028e-02  2.6592e-03  1.7819e-03  0:00:26  151
  1850  1.8098e-02  7.9714e-03  2.1508e-02  3.1572e+03  1.8088e-02  2.6670e-03  1.7713e-03  0:00:21  150
  1851  1.7075e-02  7.9968e-03  2.1654e-02  3.1739e+03  1.7065e-02  2.6415e-03  1.7584e-03  0:00:16  149
  1852  1.5970e-02  8.0431e-03  2.1707e-02  3.1798e+03  1.5960e-02  2.6177e-03  1.7438e-03  0:00:13  148
  1853  1.5189e-02  8.0738e-03  2.1766e-02  3.1768e+03  1.5180e-02  2.6025e-03  1.7283e-03  0:00:10  147
  1854  1.4947e-02  8.0582e-03  2.1810e-02  3.1692e+03  1.4937e-02  2.5882e-03  1.7208e-03  0:00:37  146
  1855  1.5246e-02  8.0029e-03  2.1819e-02  3.1391e+03  1.5237e-02  2.5793e-03  1.7386e-03  0:00:30  145
  1856  1.5878e-02  8.0360e-03  2.1774e-02  3.0925e+03  1.5869e-02  2.5690e-03  1.7485e-03  0:00:24  144
  1857  1.6572e-02  8.0459e-03  2.1766e-02  3.0560e+03  1.6563e-02  2.5558e-03  1.7625e-03  0:00:19  143
  1858  1.7651e-02  8.0365e-03  2.1776e-02  3.0066e+03  1.7642e-02  2.5507e-03  1.7762e-03  0:00:15  142
  1859  1.8861e-02  7.9515e-03  2.1786e-02  2.9380e+03  1.8852e-02  2.5460e-03  1.7751e-03  0:00:12  141

  iter  continuity  x-velocity  y-velocity  z-velocity      energy           k       omega     time/iter
  1860  1.9880e-02  7.9069e-03  2.1756e-02  2.9073e+03  1.9870e-02  2.5577e-03  1.7797e-03  0:00:37  140
  1861  2.0602e-02  7.9452e-03  2.1865e-02  2.8884e+03  2.0592e-02  2.5819e-03  1.8031e-03  0:00:30  139
  1862  2.1108e-02  7.9602e-03  2.2026e-02  2.8761e+03  2.1098e-02  2.5914e-03  1.8146e-03  0:00:24  138
  1863  2.1513e-02  7.9771e-03  2.2152e-02  2.9074e+03  2.1502e-02  2.6099e-03  1.8279e-03  0:00:19  137
  1864  2.1590e-02  7.9687e-03  2.2466e-02  3.0078e+03  2.1579e-02  2.6220e-03  1.8272e-03  0:00:15  136
  1865  2.1404e-02  8.0180e-03  2.2769e-02  3.0811e+03  2.1393e-02  2.6328e-03  1.8226e-03  0:00:39  135
  1866  2.1010e-02  8.0543e-03  2.3050e-02  3.1581e+03  2.0999e-02  2.6440e-03  1.8295e-03  0:00:31  134
  1867  2.0335e-02  8.0422e-03  2.3370e-02  3.2647e+03  2.0324e-02  2.6860e-03  1.8540e-03  0:00:24  133
  1868  1.9179e-02  8.0594e-03  2.3911e-02  3.3259e+03  1.9168e-02  2.6975e-03  1.8777e-03  0:00:19  132
  1869  1.7793e-02  8.1174e-03  2.4321e-02  3.3702e+03  1.7782e-02  2.7006e-03  1.8783e-03  0:00:15  131
  1870  1.6544e-02  8.0889e-03  2.4551e-02  3.3933e+03  1.6534e-02  2.7111e-03  1.8812e-03  0:00:12  130

  iter  continuity  x-velocity  y-velocity  z-velocity      energy           k       omega     time/iter
  1871  1.5848e-02  8.0256e-03  2.4771e-02  3.3657e+03  1.5838e-02  2.7227e-03  1.9026e-03  0:00:10  129
  1872  1.5526e-02  7.9959e-03  2.4804e-02  3.3181e+03  1.5516e-02  2.7406e-03  1.9239e-03  0:00:33  128
  1873  1.5646e-02  7.9835e-03  2.4612e-02  3.2724e+03  1.5637e-02  2.7448e-03  1.9301e-03  0:00:26  127
  1874  1.6231e-02  7.9538e-03  2.4296e-02  3.2100e+03  1.6222e-02  2.7299e-03  1.9112e-03  0:00:21  126
  1875  1.7011e-02  7.9305e-03  2.3942e-02  3.1165e+03  1.7002e-02  2.7263e-03  1.9151e-03  0:00:17  125
  1876  1.7958e-02  7.9200e-03  2.3493e-02  3.0665e+03  1.7949e-02  2.7375e-03  1.9319e-03  0:00:13  124
  1877  1.8873e-02  7.9470e-03  2.3030e-02  3.0179e+03  1.8864e-02  2.7424e-03  1.9164e-03  0:00:10  123
  1878  1.9504e-02  7.9728e-03  2.2580e-02  2.9776e+03  1.9495e-02  2.7054e-03  1.8966e-03  0:00:33  122
  1879  1.9890e-02  7.9738e-03  2.2151e-02  2.9742e+03  1.9881e-02  2.7137e-03  1.8740e-03  0:00:26  121
  1880  2.0144e-02  7.9743e-03  2.1818e-02  3.0117e+03  2.0135e-02  2.6895e-03  1.8474e-03  0:00:21  120
  1881  2.0061e-02  7.9851e-03  2.1599e-02  3.0370e+03  2.0051e-02  2.6833e-03  1.8226e-03  0:00:16  119

  iter  continuity  x-velocity  y-velocity  z-velocity      energy           k       omega     time/iter
  1882  1.9671e-02  8.0000e-03  2.1444e-02  3.0730e+03  1.9661e-02  2.6603e-03  1.7945e-03  0:00:13  118
  1883  1.8887e-02  7.9936e-03  2.1394e-02  3.1173e+03  1.8877e-02  2.6645e-03  1.7800e-03  0:00:10  117
  1884  1.7903e-02  7.9721e-03  2.1528e-02  3.1600e+03  1.7892e-02  2.6630e-03  1.7682e-03  0:00:31  116
  1885  1.6923e-02  8.0043e-03  2.1658e-02  3.1782e+03  1.6914e-02  2.6330e-03  1.7559e-03  0:00:25  115
  1886  1.5808e-02  8.0462e-03  2.1701e-02  3.1810e+03  1.5799e-02  2.6158e-03  1.7412e-03  0:00:20  114
  1887  1.5114e-02  8.0723e-03  2.1772e-02  3.1748e+03  1.5105e-02  2.5977e-03  1.7241e-03  0:00:16  113
  1888  1.4950e-02  8.0491e-03  2.1812e-02  3.1653e+03  1.4940e-02  2.5876e-03  1.7194e-03  0:00:12  112
  1889  1.5369e-02  7.9988e-03  2.1807e-02  3.1298e+03  1.5359e-02  2.5795e-03  1.7408e-03  0:00:10  111
  1890  1.5946e-02  8.0397e-03  2.1762e-02  3.0871e+03  1.5937e-02  2.5646e-03  1.7483e-03  0:00:30  110
  1891  1.6715e-02  8.0422e-03  2.1759e-02  3.0505e+03  1.6706e-02  2.5548e-03  1.7639e-03  0:00:24  109
  1892  1.7837e-02  8.0202e-03  2.1776e-02  2.9978e+03  1.7828e-02  2.5467e-03  1.7752e-03  0:00:19  108

  iter  continuity  x-velocity  y-velocity  z-velocity      energy           k       omega     time/iter
  1893  1.9049e-02  7.9370e-03  2.1766e-02  2.9301e+03  1.9039e-02  2.5425e-03  1.7771e-03  0:00:15  107
  1894  2.0022e-02  7.9098e-03  2.1759e-02  2.9052e+03  2.0012e-02  2.5599e-03  1.7828e-03  0:00:12  106
  1895  2.0699e-02  7.9513e-03  2.1891e-02  2.8832e+03  2.0689e-02  2.5876e-03  1.8035e-03  0:00:09  105
  1896  2.1184e-02  7.9623e-03  2.2040e-02  2.8741e+03  2.1174e-02  2.5866e-03  1.8136e-03  0:00:07  104
  1897  2.1545e-02  7.9713e-03  2.2179e-02  2.9189e+03  2.1534e-02  2.6099e-03  1.8287e-03  0:00:26  103
  1898  2.1571e-02  7.9769e-03  2.2512e-02  3.0198e+03  2.1560e-02  2.6214e-03  1.8268e-03  0:00:21  102
  1899  2.1360e-02  8.0188e-03  2.2808e-02  3.0898e+03  2.1349e-02  2.6377e-03  1.8198e-03  0:00:17  101
  1900  2.0920e-02  8.0536e-03  2.3089e-02  3.1730e+03  2.0909e-02  2.6501e-03  1.8362e-03  0:00:13  100
  1901  2.0184e-02  8.0361e-03  2.3443e-02  3.2774e+03  2.0173e-02  2.6883e-03  1.8563e-03  0:00:10   99
  1902  1.8956e-02  8.0619e-03  2.3997e-02  3.3331e+03  1.8945e-02  2.7043e-03  1.8824e-03  0:00:08   98
  1903  1.7575e-02  8.1198e-03  2.4349e-02  3.3749e+03  1.7565e-02  2.6999e-03  1.8770e-03  0:00:26   97

  iter  continuity  x-velocity  y-velocity  z-velocity      energy           k       omega     time/iter
  1904  1.6404e-02  8.0695e-03  2.4579e-02  3.3960e+03  1.6394e-02  2.7145e-03  1.8801e-03  0:00:21   96
  1905  1.5785e-02  8.0129e-03  2.4778e-02  3.3523e+03  1.5775e-02  2.7234e-03  1.9052e-03  0:00:16   95
  1906  1.5519e-02  7.9830e-03  2.4771e-02  3.3035e+03  1.5509e-02  2.7384e-03  1.9225e-03  0:00:13   94
  1907  1.5699e-02  7.9769e-03  2.4550e-02  3.2604e+03  1.5690e-02  2.7447e-03  1.9271e-03  0:00:10   93
  1908  1.6347e-02  7.9443e-03  2.4226e-02  3.1924e+03  1.6338e-02  2.7272e-03  1.9104e-03  0:00:08   92
  1909  1.7150e-02  7.9280e-03  2.3860e-02  3.1019e+03  1.7141e-02  2.7281e-03  1.9188e-03  0:00:25   91
  1910  1.8117e-02  7.9143e-03  2.3407e-02  3.0587e+03  1.8108e-02  2.7459e-03  1.9299e-03  0:00:19   90
  1911  1.8969e-02  7.9496e-03  2.2949e-02  3.0081e+03  1.8960e-02  2.7337e-03  1.9134e-03  0:00:15   89
  1912  1.9575e-02  7.9714e-03  2.2492e-02  2.9684e+03  1.9566e-02  2.6997e-03  1.8911e-03  0:00:12   88
  1913  1.9921e-02  7.9684e-03  2.2082e-02  2.9737e+03  1.9912e-02  2.7133e-03  1.8683e-03  0:00:10   87
  1914  2.0154e-02  7.9766e-03  2.1766e-02  3.0117e+03  2.0145e-02  2.6837e-03  1.8457e-03  0:00:08   86

  iter  continuity  x-velocity  y-velocity  z-velocity      energy           k       omega     time/iter
  1915  2.0004e-02  7.9827e-03  2.1562e-02  3.0382e+03  1.9994e-02  2.6787e-03  1.8197e-03  0:00:06   85
  1916  1.9553e-02  7.9980e-03  2.1416e-02  3.0759e+03  1.9544e-02  2.6595e-03  1.7933e-03  0:00:22   84
  1917  1.8740e-02  7.9861e-03  2.1387e-02  3.1226e+03  1.8730e-02  2.6689e-03  1.7792e-03  0:00:17   83
  1918  1.7732e-02  7.9717e-03  2.1545e-02  3.1570e+03  1.7722e-02  2.6590e-03  1.7642e-03  0:00:13   82
  1919  1.6754e-02  8.0114e-03  2.1663e-02  3.1770e+03  1.6744e-02  2.6245e-03  1.7529e-03  0:00:11   81
  1920  1.5664e-02  8.0475e-03  2.1699e-02  3.1792e+03  1.5654e-02  2.6123e-03  1.7394e-03  0:00:08   80
  1921  1.5063e-02  8.0692e-03  2.1775e-02  3.1713e+03  1.5054e-02  2.5906e-03  1.7220e-03  0:00:07   79
  1922  1.4941e-02  8.0396e-03  2.1812e-02  3.1577e+03  1.4931e-02  2.5836e-03  1.7180e-03  0:00:21   78
  1923  1.5489e-02  8.0012e-03  2.1794e-02  3.1168e+03  1.5480e-02  2.5783e-03  1.7413e-03  0:00:16   77
  1924  1.6028e-02  8.0415e-03  2.1754e-02  3.0768e+03  1.6019e-02  2.5588e-03  1.7487e-03  0:00:13   76
  1925  1.6864e-02  8.0391e-03  2.1750e-02  3.0417e+03  1.6855e-02  2.5592e-03  1.7668e-03  0:00:10   75

  iter  continuity  x-velocity  y-velocity  z-velocity      energy           k       omega     time/iter
  1926  1.8017e-02  8.0080e-03  2.1782e-02  2.9847e+03  1.8008e-02  2.5458e-03  1.7734e-03  0:00:08   74
  1927  1.9217e-02  7.9248e-03  2.1751e-02  2.9217e+03  1.9208e-02  2.5422e-03  1.7791e-03  0:00:06   73
  1928  2.0156e-02  7.9135e-03  2.1768e-02  2.9024e+03  2.0147e-02  2.5648e-03  1.7875e-03  0:00:05   72
  1929  2.0798e-02  7.9535e-03  2.1921e-02  2.8783e+03  2.0788e-02  2.5908e-03  1.8041e-03  0:00:18   71
  1930  2.1252e-02  7.9653e-03  2.2060e-02  2.8745e+03  2.1242e-02  2.5869e-03  1.8166e-03  0:00:14   70
  1931  2.1563e-02  7.9631e-03  2.2218e-02  2.9313e+03  2.1552e-02  2.6111e-03  1.8285e-03  0:00:11   69
  1932  2.1550e-02  7.9874e-03  2.2563e-02  3.0287e+03  2.1539e-02  2.6227e-03  1.8258e-03  0:00:09   68
  1933  2.1304e-02  8.0211e-03  2.2849e-02  3.0977e+03  2.1293e-02  2.6411e-03  1.8185e-03  0:00:07   67
  1934  2.0827e-02  8.0500e-03  2.3133e-02  3.1862e+03  2.0816e-02  2.6543e-03  1.8419e-03  0:00:06   66
  1935  2.0028e-02  8.0339e-03  2.3530e-02  3.2854e+03  2.0017e-02  2.6879e-03  1.8587e-03  0:00:17   65
  1936  1.8741e-02  8.0689e-03  2.4083e-02  3.3395e+03  1.8730e-02  2.7053e-03  1.8815e-03  0:00:14   64

  iter  continuity  x-velocity  y-velocity  z-velocity      energy           k       omega     time/iter
  1937  1.7363e-02  8.1217e-03  2.4393e-02  3.3778e+03  1.7353e-02  2.7026e-03  1.8793e-03  0:00:11   63
  1938  1.6281e-02  8.0561e-03  2.4632e-02  3.3969e+03  1.6271e-02  2.7182e-03  1.8806e-03  0:00:08   62
  1939  1.5748e-02  8.0091e-03  2.4807e-02  3.3442e+03  1.5738e-02  2.7271e-03  1.9112e-03  0:00:07   61
  1940  1.5521e-02  7.9852e-03  2.4760e-02  3.2964e+03  1.5511e-02  2.7354e-03  1.9265e-03  0:00:05   60
  1941  1.5787e-02  7.9760e-03  2.4515e-02  3.2524e+03  1.5778e-02  2.7436e-03  1.9269e-03  0:00:04   59
  1942  1.6475e-02  7.9421e-03  2.4181e-02  3.1766e+03  1.6466e-02  2.7265e-03  1.9096e-03  0:00:15   58
  1943  1.7310e-02  7.9308e-03  2.3796e-02  3.0916e+03  1.7301e-02  2.7271e-03  1.9237e-03  0:00:12   57
  1944  1.8287e-02  7.9184e-03  2.3343e-02  3.0522e+03  1.8278e-02  2.7522e-03  1.9294e-03  0:00:09   56
  1945  1.9085e-02  7.9563e-03  2.2884e-02  3.0006e+03  1.9076e-02  2.7270e-03  1.9125e-03  0:00:07   55
  1946  1.9654e-02  7.9734e-03  2.2426e-02  2.9652e+03  1.9645e-02  2.7014e-03  1.8906e-03  0:00:06   54
  1947  1.9977e-02  7.9710e-03  2.2035e-02  2.9789e+03  1.9968e-02  2.7100e-03  1.8619e-03  0:00:04   53

  iter  continuity  x-velocity  y-velocity  z-velocity      energy           k       omega     time/iter
  1948  2.0165e-02  7.9840e-03  2.1736e-02  3.0158e+03  2.0156e-02  2.6822e-03  1.8419e-03  0:00:14   52
  1949  1.9961e-02  7.9876e-03  2.1543e-02  3.0440e+03  1.9951e-02  2.6760e-03  1.8145e-03  0:00:11   51
  1950  1.9440e-02  7.9995e-03  2.1412e-02  3.0830e+03  1.9430e-02  2.6590e-03  1.7916e-03  0:00:09   50
  1951  1.8585e-02  7.9802e-03  2.1407e-02  3.1316e+03  1.8575e-02  2.6730e-03  1.7787e-03  0:00:07   49
  1952  1.7565e-02  7.9748e-03  2.1578e-02  3.1602e+03  1.7555e-02  2.6565e-03  1.7655e-03  0:00:05   48
  1953  1.6573e-02  8.0236e-03  2.1681e-02  3.1788e+03  1.6563e-02  2.6177e-03  1.7505e-03  0:00:04   47
  1954  1.5535e-02  8.0521e-03  2.1718e-02  3.1806e+03  1.5526e-02  2.6086e-03  1.7389e-03  0:00:03   46
  1955  1.5026e-02  8.0672e-03  2.1789e-02  3.1715e+03  1.5017e-02  2.5844e-03  1.7225e-03  0:00:12   45
  1956  1.4944e-02  8.0339e-03  2.1825e-02  3.1554e+03  1.4935e-02  2.5786e-03  1.7218e-03  0:00:09   44
  1957  1.5611e-02  8.0114e-03  2.1792e-02  3.1055e+03  1.5602e-02  2.5749e-03  1.7429e-03  0:00:07   43
  1958  1.6155e-02  8.0423e-03  2.1765e-02  3.0661e+03  1.6147e-02  2.5573e-03  1.7530e-03  0:00:06   42

  iter  continuity  x-velocity  y-velocity  z-velocity      energy           k       omega     time/iter
  1959  1.7049e-02  8.0390e-03  2.1752e-02  3.0302e+03  1.7041e-02  2.5593e-03  1.7708e-03  0:00:04   41
  1960  1.8229e-02  7.9929e-03  2.1789e-02  2.9720e+03  1.8220e-02  2.5449e-03  1.7738e-03  0:00:03   40
  1961  1.9384e-02  7.9138e-03  2.1749e-02  2.9166e+03  1.9374e-02  2.5457e-03  1.7798e-03  0:00:10   39
  1962  2.0272e-02  7.9222e-03  2.1786e-02  2.9007e+03  2.0262e-02  2.5654e-03  1.7916e-03  0:00:08   38
  1963  2.0885e-02  7.9559e-03  2.1959e-02  2.8780e+03  2.0875e-02  2.5912e-03  1.8047e-03  0:00:06   37
  1964  2.1327e-02  7.9736e-03  2.2089e-02  2.8794e+03  2.1316e-02  2.5930e-03  1.8239e-03  0:00:05   36
  1965  2.1579e-02  7.9570e-03  2.2271e-02  2.9481e+03  2.1568e-02  2.6161e-03  1.8277e-03  0:00:04   35
  1966  2.1513e-02  8.0029e-03  2.2616e-02  3.0399e+03  2.1503e-02  2.6235e-03  1.8242e-03  0:00:03   34
  1967  2.1239e-02  8.0306e-03  2.2897e-02  3.1088e+03  2.1228e-02  2.6448e-03  1.8204e-03  0:00:02   33
  1968  2.0714e-02  8.0504e-03  2.3180e-02  3.2039e+03  2.0703e-02  2.6609e-03  1.8484e-03  0:00:08   32
  1969  1.9849e-02  8.0382e-03  2.3623e-02  3.2978e+03  1.9838e-02  2.6904e-03  1.8642e-03  0:00:06   31

  iter  continuity  x-velocity  y-velocity  z-velocity      energy           k       omega     time/iter
  1970  1.8506e-02  8.0825e-03  2.4156e-02  3.3489e+03  1.8495e-02  2.7076e-03  1.8809e-03  0:00:05   30
  1971  1.7134e-02  8.1206e-03  2.4431e-02  3.3837e+03  1.7124e-02  2.7040e-03  1.8813e-03  0:00:04   29
  1972  1.6160e-02  8.0490e-03  2.4667e-02  3.3920e+03  1.6150e-02  2.7165e-03  1.8858e-03  0:00:03   28
  1973  1.5693e-02  8.0055e-03  2.4805e-02  3.3370e+03  1.5683e-02  2.7293e-03  1.9152e-03  0:00:02   27
  1974  1.5550e-02  7.9840e-03  2.4722e-02  3.2887e+03  1.5541e-02  2.7318e-03  1.9308e-03  0:00:07   26
  1975  1.5892e-02  7.9748e-03  2.4460e-02  3.2472e+03  1.5883e-02  2.7406e-03  1.9244e-03  0:00:05   25
  1976  1.6610e-02  7.9395e-03  2.4120e-02  3.1610e+03  1.6601e-02  2.7254e-03  1.9090e-03  0:00:04   24
  1977  1.7461e-02  7.9317e-03  2.3717e-02  3.0822e+03  1.7452e-02  2.7243e-03  1.9305e-03  0:00:03   23
  1978  1.8440e-02  7.9252e-03  2.3270e-02  3.0442e+03  1.8432e-02  2.7553e-03  1.9285e-03  0:00:02   22
  1979  1.9184e-02  7.9627e-03  2.2807e-02  2.9937e+03  1.9175e-02  2.7226e-03  1.9081e-03  0:00:02   21
  1980  1.9712e-02  7.9739e-03  2.2352e-02  2.9644e+03  1.9703e-02  2.7024e-03  1.8886e-03  0:00:01   20

  iter  continuity  x-velocity  y-velocity  z-velocity      energy           k       omega     time/iter
  1981  2.0008e-02  7.9645e-03  2.1977e-02  2.9868e+03  1.9999e-02  2.7069e-03  1.8561e-03  0:00:05   19
  1982  2.0142e-02  7.9815e-03  2.1696e-02  3.0210e+03  2.0133e-02  2.6856e-03  1.8378e-03  0:00:04   18
  1983  1.9907e-02  7.9885e-03  2.1511e-02  3.0507e+03  1.9898e-02  2.6712e-03  1.8084e-03  0:00:03   17
  1984  1.9319e-02  7.9983e-03  2.1398e-02  3.0907e+03  1.9309e-02  2.6576e-03  1.7888e-03  0:00:02   16
  1985  1.8433e-02  7.9735e-03  2.1425e-02  3.1400e+03  1.8423e-02  2.6740e-03  1.7767e-03  0:00:02   15
  1986  1.7397e-02  7.9782e-03  2.1598e-02  3.1639e+03  1.7387e-02  2.6534e-03  1.7616e-03  0:00:01   14
  1987  1.6373e-02  8.0295e-03  2.1685e-02  3.1781e+03  1.6363e-02  2.6165e-03  1.7475e-03  0:00:03   13
  1988  1.5409e-02  8.0575e-03  2.1724e-02  3.1805e+03  1.5399e-02  2.6083e-03  1.7362e-03  0:00:03   12
  1989  1.4980e-02  8.0637e-03  2.1788e-02  3.1705e+03  1.4971e-02  2.5839e-03  1.7228e-03  0:00:02   11
  1990  1.4995e-02  8.0236e-03  2.1819e-02  3.1522e+03  1.4986e-02  2.5761e-03  1.7257e-03  0:00:01   10
  1991  1.5728e-02  8.0234e-03  2.1782e-02  3.0983e+03  1.5719e-02  2.5716e-03  1.7450e-03  0:00:01    9

  iter  continuity  x-velocity  y-velocity  z-velocity      energy           k       omega     time/iter
  1992  1.6295e-02  8.0431e-03  2.1764e-02  3.0608e+03  1.6287e-02  2.5573e-03  1.7555e-03  0:00:01    8
  1993  1.7233e-02  8.0378e-03  2.1745e-02  3.0208e+03  1.7224e-02  2.5579e-03  1.7743e-03  0:00:00    7
  1994  1.8437e-02  7.9762e-03  2.1784e-02  2.9604e+03  1.8428e-02  2.5444e-03  1.7732e-03  0:00:02    6
  1995  1.9550e-02  7.9061e-03  2.1738e-02  2.9127e+03  1.9540e-02  2.5502e-03  1.7789e-03  0:00:01    5
  1996  2.0371e-02  7.9252e-03  2.1797e-02  2.8963e+03  2.0362e-02  2.5702e-03  1.7949e-03  0:00:01    4
  1997  2.0958e-02  7.9541e-03  2.1975e-02  2.8761e+03  2.0948e-02  2.5939e-03  1.8085e-03  0:00:00    3
  1998  2.1398e-02  7.9756e-03  2.2102e-02  2.8853e+03  2.1387e-02  2.6003e-03  1.8256e-03  0:00:00    2
  1999  2.1594e-02  7.9549e-03  2.2327e-02  2.9655e+03  2.1583e-02  2.6207e-03  1.8273e-03  0:00:00    1
  2000  2.1490e-02  8.0110e-03  2.2661e-02  3.0515e+03  2.1479e-02  2.6273e-03  1.8234e-03  0:00:00    0

> 
adjoint/                parallel/               server/
define/                 parametric-study/       solve/
display/                plot/                   surface/
exit                    preferences/            turbo-workflow/
file/                   print-license-usage     views/
mesh/                   report/

> /file/write-case-data project1
Fast-loading "C:\PROGRA~1\ANSYSI~1\v231\fluent\fluent23.1.0\\addons\afd\lib\hdfio.bin"
Done.

Writing to Engs-30669:"C:\Users\kebl7595\Desktop\CFD\Runs\Flap\Shallower Aspect Ratio\Larger Size\project1.cas.h5" in NODE0 mode and compression level 1 ...
       20322 cells,     1 zone  ...
       68343 faces,     7 zones ...
       27900 nodes,     1 zone  ...
  Done.
Done.

Writing to Engs-30669:"C:\Users\kebl7595\Desktop\CFD\Runs\Flap\Shallower Aspect Ratio\Larger Size\project1.dat.h5" in NODE0 mode and compression level 1 ...
  Writing results.
Done.

> /file/export/ascii "./surface.dat" wing () no pressure mach-number quit no

Writing "./surface.dat"...

Writing information to ascii file ...
Done.


> /report/forces/wall-forces y -0. -1 0 y "Lift"

> /report/forces/wall-forces y 1 -0. 0 y "Drag"

> /exit

Posting ANSYS Product Improvement Program performance data 
Done.
Auto-Transcript Stop Time:  11:15:24, 22 May 2024 GMT Daylight Time 
Total Transcript Time: 4 Minute 47 Second.
