Auto-Transcript Start Time:  14:39:38, 20 May 2024 GMT Daylight Time 
Current Directory: "C:\Users\kebl7595\Desktop\CFD\Runs\Actual Data\9 degrees"

              Welcome to ANSYS Fluent 2023 R1

              Copyright 1987-2023 ANSYS, Inc. All Rights Reserved.
              Unauthorized use, distribution or duplication is prohibited.
              This product is subject to U.S. laws governing export and re-export.
              For full Legal Notice, see documentation.

Build Time: Nov 28 2022 09:52:02 EST  Build Id: 10208  
 
Connected License Server List:	1055@ansyslic.eng.ox.ac.uk

*********************************************
Info: Your license enables 4-way parallel execution.
For faster simulations, please start the application with the appropriate parallel options.
*********************************************


     --------------------------------------------------------------
     This is an academic version of ANSYS FLUENT. Usage of this product
     license is limited to the terms and conditions specified in your ANSYS
     license form, additional terms section.
     --------------------------------------------------------------
Host spawning Node 0 on machine "Engs-30669" (win64).

------------------------------------------------------------------------------------
ID    Hostname    Core  O.S.         PID    Vendor                                 
------------------------------------------------------------------------------------
n0    Engs-30669  1/32  Windows-x64  13360  13th Gen Intel(R) Core(TM) i9-13900    
host  Engs-30669        Windows-x64  32996  13th Gen Intel(R) Core(TM) i9-13900    

MPI Option Selected: intel
------------------------------------------------------------------------------------

Cleanup script file is C:\\Users\\kebl7595\\Desktop\\CFD\\Runs\\Actual Data\\9 degrees\\cleanup-fluent-Engs-30669-32996.bat
QA Service Message :
QA Services Agreement Enabled. This application is included in the scope of an ANSYS QA Services Agreement.
Posting ANSYS Product Improvement Program startup data
Done.

Reading journal file C:/Users/kebl7595/Desktop/CFD/Runs/Actual Data/9 degrees/project1.jou...

> /file/set-batch-options no no no 

> 
define/                 parametric-study/       solve/
display/                plot/                   surface/
exit                    preferences/            switch-to-meshing-mode
file/                   print-license-usage     turbo-workflow/
mesh/                   report/                 views/
parallel/               server/

> /file/import/cgns/mesh  "./project1.cgns"
Engs-30669 has other FLUENT parallel processes running.                       Process affinity not being set.

Importing "./project1.cgns"

Opening library "C:\\PROGRA~1\\ANSYSI~1\\v231\\fluent\\fluent23.1.0\\vki\\win64\\devtools4.4.6.dll"... done.

Read    17864 nodes
   12996 hexahedral cells, zone  1
    9462 quadrilateral wall faces, zone  2.
   33972 quadrilateral interior faces, zone  3.
     282 quadrilateral interface faces, zone  4.
       6 quadrilateral wall faces, zone  5.

Building...
     mesh
     materials,
     interface,
     domains,
     zones,
	default_exterior-1
	interface-default_subface
	default_interior-1
	default_subface
	default
     parallel,
The automatic selection for flux type has changed to Rhie-Chow: momentum based.

Done.


> 
adjoint/                parallel/               server/
define/                 parametric-study/       solve/
display/                plot/                   surface/
exit                    preferences/            turbo-workflow/
file/                   print-license-usage     views/
mesh/                   report/

> /define/models/solver/density-based-implicit yes

> 
adjoint/                parallel/               server/
define/                 parametric-study/       solve/
display/                plot/                   surface/
exit                    preferences/            turbo-workflow/
file/                   print-license-usage     views/
mesh/                   report/

> /define/models/energy? yes yes invalid command [yes]
yes

> /define/models/viscous/inviscid yes

> 
adjoint/                parallel/               server/
define/                 parametric-study/       solve/
display/                plot/                   surface/
exit                    preferences/            turbo-workflow/
file/                   print-license-usage     views/
mesh/                   report/

> /define/materials/change-create air air air is a fluid
yes 
Density
ideal-gas no data required.

no no no no 

> 
adjoint/                parallel/               server/
define/                 parametric-study/       solve/
display/                plot/                   surface/
exit                    preferences/            turbo-workflow/
file/                   print-license-usage     views/
mesh/                   report/

> /mesh/modify-zones/sep-face-zone-angle 2 90 yes

 4332 faces in contiguous region 0
 228 faces in contiguous region 1
 342 faces in contiguous region 2
 4332 faces in contiguous region 3
 228 faces in contiguous region 4
 Separates zone 2 into 5 zone(s).
Updating new zone information...
   created new zone default_subface:010 from default_subface
   created new zone default_subface:009 from default_subface
   created new zone default_subface:008 from default_subface
   created new zone default_subface:007 from default_subface
done.

> 
adjoint/                parallel/               server/
define/                 parametric-study/       solve/
display/                plot/                   surface/
exit                    preferences/            turbo-workflow/
file/                   print-license-usage     views/
mesh/                   report/

> /define/boundary-conditions/zone-name  5   te

> /define/boundary-conditions/zone-name  7 wing

> /define/boundary-conditions/zone-name  2 sym1

> /define/boundary-conditions/zone-name  9 sym2

> 
adjoint/                parallel/               server/
define/                 parametric-study/       solve/
display/                plot/                   surface/
exit                    preferences/            turbo-workflow/
file/                   print-license-usage     views/
mesh/                   report/

> /define/boundary-conditions/zone-name  8 far1

> /define/boundary-conditions/zone-name 10 far2

> 
adjoint/                parallel/               server/
define/                 parametric-study/       solve/
display/                plot/                   surface/
exit                    preferences/            turbo-workflow/
file/                   print-license-usage     views/
mesh/                   report/

> /define/boundary-conditions/zone-type  8 pressure-far-field

> /define/boundary-conditions/zone-type 10 pressure-far-field

> /define/boundary-conditions/zone-type  2 symmetry

> /define/boundary-conditions/zone-type  9 symmetry

> 
adjoint/                parallel/               server/
define/                 parametric-study/       solve/
display/                plot/                   surface/
exit                    preferences/            turbo-workflow/
file/                   print-license-usage     views/
mesh/                   report/

> /define/boundary-conditions/pressure-far-field (far2 far1)
far1 no 0 no 0.1 no 300 yes no 0.98769 no 0.15643 no 0

> /define/boundary-conditions/pressure-far-field (far2 far1)
far2 no 0 no 0.1 no 300 yes no 0.98769 no 0.15643 no 0

> 
adjoint/                parallel/               server/
define/                 parametric-study/       solve/
display/                plot/                   surface/
exit                    preferences/            turbo-workflow/
file/                   print-license-usage     views/
mesh/                   report/

> /solve/initialize/compute-defaults/pressure-far-field (far2 far1)
far1

> /solve/initialize/initialize-flow

> 
adjoint/                parallel/               server/
define/                 parametric-study/       solve/
display/                plot/                   surface/
exit                    preferences/            turbo-workflow/
file/                   print-license-usage     views/
mesh/                   report/

> /solve/monitors/residual/convergence-criteria 1.e-9 1.e-9 1.e-9 1.e-9 1.e-9

> /solve/iterate 2000

  iter  continuity  x-velocity  y-velocity  z-velocity      energy     time/iter
     1  1.0000e+00  1.0000e+00  1.0000e+00  0.0000e+00  1.0000e+00  0:00:00 1999
     2  5.4073e-01  5.3889e-01  3.5635e-01  1.0000e+00  5.4139e-01  0:33:18 1998
     3  2.8422e-01  2.2340e-01  2.5117e-01  8.7204e-01  2.8446e-01  0:26:38 1997
     4  1.7800e-01  1.7045e-01  1.6379e-01  5.7843e-01  1.7807e-01  0:21:17 1996
     5  1.3726e-01  1.2492e-01  1.0636e-01  5.9862e-01  1.3736e-01  0:17:01 1995
     6  1.1455e-01  8.7390e-02  7.3842e-02  7.2154e-01  1.1469e-01  0:13:37 1994
     7  9.8436e-02  6.2025e-02  5.4594e-02  8.1536e-01  9.8599e-02  0:10:53 1993
     8  8.5934e-02  4.6849e-02  4.1963e-02  7.1527e-01  8.6100e-02  0:08:42 1992
     9  7.6332e-02  3.8022e-02  3.3215e-02  6.2388e-01  7.6493e-02  0:13:36 1991
    10  6.9351e-02  3.3276e-02  2.7037e-02  5.8054e-01  6.9505e-02  0:10:52 1990
    11  6.4457e-02  3.1029e-02  2.2587e-02  5.5022e-01  6.4602e-02  0:08:42 1989

  iter  continuity  x-velocity  y-velocity  z-velocity      energy     time/iter
    12  6.0984e-02  3.0349e-02  1.9442e-02  5.2406e-01  6.1119e-02  0:06:57 1988
    13  5.8835e-02  3.0550e-02  1.7228e-02  5.1111e-01  5.8961e-02  0:05:33 1987
    14  5.7701e-02  3.1334e-02  1.5654e-02  5.1414e-01  5.7820e-02  0:04:27 1986
    15  5.7433e-02  3.2459e-02  1.4616e-02  5.2754e-01  5.7543e-02  0:03:33 1985
    16  5.8020e-02  3.3897e-02  1.3967e-02  5.4995e-01  5.8123e-02  0:02:50 1984
    17  5.9260e-02  3.5474e-02  1.3592e-02  5.7631e-01  5.9355e-02  0:02:16 1983
    18  6.0979e-02  3.7058e-02  1.3424e-02  6.0373e-01  6.1066e-02  0:01:49 1982
    19  6.2796e-02  3.8463e-02  1.3507e-02  6.3435e-01  6.2874e-02  0:01:27 1981
    20  6.4424e-02  3.9613e-02  1.3857e-02  6.6952e-01  6.4491e-02  0:01:10 1980
    21  6.5688e-02  4.0498e-02  1.4339e-02  7.0728e-01  6.5744e-02  0:07:32 1979
    22  6.6557e-02  4.1091e-02  1.4670e-02  7.4398e-01  6.6599e-02  0:06:01 1978

  iter  continuity  x-velocity  y-velocity  z-velocity      energy     time/iter
    23  6.7227e-02  4.1345e-02  1.5145e-02  7.7693e-01  6.7256e-02  0:04:49 1977
    24  6.7646e-02  4.1270e-02  1.5399e-02  8.0110e-01  6.7661e-02  0:03:51 1976
    25  6.7721e-02  4.0813e-02  1.5568e-02  8.1373e-01  6.7722e-02  0:03:05 1975
    26  6.7111e-02  3.9994e-02  1.5746e-02  8.1312e-01  6.7099e-02  0:02:28 1974
    27  6.5689e-02  3.8906e-02  1.5856e-02  7.9789e-01  6.5663e-02  0:01:58 1973
    28  6.3454e-02  3.7556e-02  1.5553e-02  7.6572e-01  6.3416e-02  0:01:34 1972
    29  6.0932e-02  3.6170e-02  1.5267e-02  7.2462e-01  6.0881e-02  0:01:15 1971
    30  5.8115e-02  3.4713e-02  1.4697e-02  6.7445e-01  5.8054e-02  0:01:00 1970
    31  5.4841e-02  3.3234e-02  1.4044e-02  6.1516e-01  5.4773e-02  0:00:48 1969
    32  5.1028e-02  3.1787e-02  1.3473e-02  5.5532e-01  5.0953e-02  0:07:12 1968
    33  4.6660e-02  3.0430e-02  1.2833e-02  5.0485e-01  4.6580e-02  0:05:46 1967

  iter  continuity  x-velocity  y-velocity  z-velocity      energy     time/iter
    34  4.2278e-02  2.9512e-02  1.2569e-02  4.7577e-01  4.2194e-02  0:04:36 1966
    35  3.7814e-02  2.8910e-02  1.2562e-02  4.7271e-01  3.7728e-02  0:03:41 1965
    36  3.3277e-02  2.8646e-02  1.2860e-02  4.9183e-01  3.3190e-02  0:02:57 1964
    37  2.8653e-02  2.8676e-02  1.3484e-02  5.3074e-01  2.8567e-02  0:02:21 1963
    38  2.4269e-02  2.9084e-02  1.4307e-02  5.8114e-01  2.4184e-02  0:01:53 1962
    39  2.0090e-02  2.9844e-02  1.5344e-02  6.3636e-01  2.0006e-02  0:01:30 1961
    40  1.6194e-02  3.0825e-02  1.6444e-02  6.8905e-01  1.6113e-02  0:01:12 1960
    41  1.2847e-02  3.1938e-02  1.7518e-02  7.3472e-01  1.2768e-02  0:00:58 1959
    42  1.0306e-02  3.3095e-02  1.8520e-02  7.7436e-01  1.0233e-02  0:00:46 1958
    43  9.1128e-03  3.4219e-02  1.9417e-02  8.0749e-01  9.0532e-03  0:07:08 1957
    44  9.3523e-03  3.5284e-02  2.0163e-02  8.2867e-01  9.3117e-03  0:05:42 1956

  iter  continuity  x-velocity  y-velocity  z-velocity      energy     time/iter
    45  1.0642e-02  3.6260e-02  2.0744e-02  8.3320e-01  1.0618e-02  0:04:34 1955
    46  1.2437e-02  3.7102e-02  2.1154e-02  8.2234e-01  1.2423e-02  0:03:39 1954
    47  1.4391e-02  3.7783e-02  2.1399e-02  7.9873e-01  1.4384e-02  0:02:55 1953
    48  1.6195e-02  3.8290e-02  2.1494e-02  7.6638e-01  1.6191e-02  0:02:20 1952
    49  1.7811e-02  3.8637e-02  2.1440e-02  7.2420e-01  1.7809e-02  0:01:52 1951
    50  1.9244e-02  3.8808e-02  2.1258e-02  6.7337e-01  1.9243e-02  0:01:30 1950
    51  2.0489e-02  3.8822e-02  2.0958e-02  6.1679e-01  2.0489e-02  0:01:12 1949
    52  2.1571e-02  3.8698e-02  2.0553e-02  5.5955e-01  2.1571e-02  0:00:57 1948
    53  2.2491e-02  3.8296e-02  2.0067e-02  5.0126e-01  2.2491e-02  0:00:46 1947
    54  2.3248e-02  3.7716e-02  1.9494e-02  4.4982e-01  2.3248e-02  0:07:06 1946
    55  2.3836e-02  3.7098e-02  1.8807e-02  4.0943e-01  2.3837e-02  0:05:40 1945

  iter  continuity  x-velocity  y-velocity  z-velocity      energy     time/iter
    56  2.4249e-02  3.6379e-02  1.8050e-02  3.8330e-01  2.4251e-02  0:04:32 1944
    57  2.4480e-02  3.5533e-02  1.7247e-02  3.7478e-01  2.4481e-02  0:03:38 1943
    58  2.4523e-02  3.4512e-02  1.6421e-02  3.8445e-01  2.4524e-02  0:02:54 1942
    59  2.4377e-02  3.3360e-02  1.5566e-02  4.0852e-01  2.4379e-02  0:02:19 1941
    60  2.4045e-02  3.2144e-02  1.4681e-02  4.4090e-01  2.4048e-02  0:01:51 1940
    61  2.3534e-02  3.0863e-02  1.3782e-02  4.7592e-01  2.3537e-02  0:01:29 1939
    62  2.2854e-02  2.9520e-02  1.2885e-02  5.0934e-01  2.2857e-02  0:01:11 1938
    63  2.2017e-02  2.8117e-02  1.2000e-02  5.3942e-01  2.2020e-02  0:00:57 1937
    64  2.1025e-02  2.6609e-02  1.1141e-02  5.6015e-01  2.1028e-02  0:00:45 1936
    65  1.9904e-02  2.5191e-02  1.0290e-02  5.7366e-01  1.9907e-02  0:00:36 1935
    66  1.8674e-02  2.3839e-02  9.4463e-03  5.8214e-01  1.8677e-02  0:06:56 1934

  iter  continuity  x-velocity  y-velocity  z-velocity      energy     time/iter
    67  1.7338e-02  2.2508e-02  8.6363e-03  5.8435e-01  1.7340e-02  0:05:33 1933
    68  1.5886e-02  2.1130e-02  7.8855e-03  5.7918e-01  1.5888e-02  0:04:26 1932
    69  1.4334e-02  1.9867e-02  7.1854e-03  5.6711e-01  1.4336e-02  0:03:33 1931
    70  1.2705e-02  1.8792e-02  6.5463e-03  5.4829e-01  1.2706e-02  0:02:50 1930
    71  1.1037e-02  1.7962e-02  5.9879e-03  5.2506e-01  1.1037e-02  0:02:16 1929
    72  9.3718e-03  1.7406e-02  5.5302e-03  4.9775e-01  9.3701e-03  0:01:49 1928
    73  7.7953e-03  1.7137e-02  5.1871e-03  4.7041e-01  7.7916e-03  0:01:27 1927
    74  6.4586e-03  1.7144e-02  4.9729e-03  4.4708e-01  6.4516e-03  0:01:09 1926
    75  5.6033e-03  1.7410e-02  4.8864e-03  4.2962e-01  5.5918e-03  0:00:56 1925
    76  5.4926e-03  1.7905e-02  4.9127e-03  4.2098e-01  5.4767e-03  0:07:09 1924
    77  6.1670e-03  1.8574e-02  5.0301e-03  4.2388e-01  6.1480e-03  0:05:43 1923

  iter  continuity  x-velocity  y-velocity  z-velocity      energy     time/iter
    78  7.3929e-03  1.9347e-02  5.2152e-03  4.3532e-01  7.3720e-03  0:04:34 1922
    79  8.9070e-03  2.0172e-02  5.4387e-03  4.5537e-01  8.8842e-03  0:03:39 1921
    80  1.0538e-02  2.1016e-02  5.6783e-03  4.8211e-01  1.0513e-02  0:02:55 1920
    81  1.2197e-02  2.1821e-02  5.9094e-03  5.1489e-01  1.2170e-02  0:02:20 1919
    82  1.3824e-02  2.2530e-02  6.1270e-03  5.4608e-01  1.3793e-02  0:01:52 1918
    83  1.5368e-02  2.3114e-02  6.3208e-03  5.7398e-01  1.5334e-02  0:01:30 1917
    84  1.6797e-02  2.3541e-02  6.4640e-03  5.9443e-01  1.6758e-02  0:01:12 1916
    85  1.8085e-02  2.3829e-02  6.5460e-03  6.0556e-01  1.8041e-02  0:00:57 1915
    86  1.9215e-02  2.3959e-02  6.5794e-03  6.0799e-01  1.9166e-02  0:00:46 1914
    87  2.0195e-02  2.3920e-02  6.5721e-03  6.0186e-01  2.0141e-02  0:06:59 1913
    88  2.1015e-02  2.3709e-02  6.5287e-03  5.8601e-01  2.0956e-02  0:05:35 1912

  iter  continuity  x-velocity  y-velocity  z-velocity      energy     time/iter
    89  2.1657e-02  2.3330e-02  6.4675e-03  5.6074e-01  2.1592e-02  0:04:28 1911
    90  2.2097e-02  2.2789e-02  6.4044e-03  5.2708e-01  2.2026e-02  0:03:34 1910
    91  2.2305e-02  2.2092e-02  6.3782e-03  4.8690e-01  2.2229e-02  0:02:51 1909
    92  2.2278e-02  2.1271e-02  6.4034e-03  4.4128e-01  2.2196e-02  0:02:17 1908
    93  2.2033e-02  2.0360e-02  6.5014e-03  3.9247e-01  2.1946e-02  0:01:50 1907
    94  2.1572e-02  1.9395e-02  6.6926e-03  3.4461e-01  2.1480e-02  0:01:28 1906
    95  2.0907e-02  1.8451e-02  6.9802e-03  3.0124e-01  2.0809e-02  0:01:10 1905
    96  2.0116e-02  1.7563e-02  7.4008e-03  2.7307e-01  2.0013e-02  0:00:56 1904
    97  1.9224e-02  1.6780e-02  7.9656e-03  2.6763e-01  1.9118e-02  0:00:45 1903
    98  1.8203e-02  1.6087e-02  8.6371e-03  2.8638e-01  1.8094e-02  0:06:56 1902
    99  1.7077e-02  1.5636e-02  9.3716e-03  3.2349e-01  1.6965e-02  0:05:33 1901

  iter  continuity  x-velocity  y-velocity  z-velocity      energy     time/iter
   100  1.5870e-02  1.5535e-02  1.0154e-02  3.7188e-01  1.5756e-02  0:04:26 1900
   101  1.4611e-02  1.5756e-02  1.0977e-02  4.2536e-01  1.4496e-02  0:03:33 1899
   102  1.3302e-02  1.6258e-02  1.1815e-02  4.7958e-01  1.3187e-02  0:02:50 1898
   103  1.1948e-02  1.7037e-02  1.2634e-02  5.3162e-01  1.1833e-02  0:02:16 1897
   104  1.0565e-02  1.8019e-02  1.3411e-02  5.7730e-01  1.0451e-02  0:01:49 1896
   105  9.1777e-03  1.9162e-02  1.4127e-02  6.1638e-01  9.0650e-03  0:01:27 1895
   106  7.8139e-03  2.0409e-02  1.4766e-02  6.4818e-01  7.7033e-03  0:01:10 1894
   107  6.4951e-03  2.1665e-02  1.5311e-02  6.7410e-01  6.3873e-03  0:00:56 1893
   108  5.2825e-03  2.2927e-02  1.5757e-02  6.9084e-01  5.1794e-03  0:00:44 1892
   109  4.2383e-03  2.4154e-02  1.6097e-02  6.9683e-01  4.1434e-03  0:00:36 1891
   110  3.4704e-03  2.5213e-02  1.6327e-02  6.9479e-01  3.3914e-03  0:06:46 1890

  iter  continuity  x-velocity  y-velocity  z-velocity      energy     time/iter
   111  3.1103e-03  2.6204e-02  1.6448e-02  6.8296e-01  3.0582e-03  0:05:25 1889
   112  3.2391e-03  2.7085e-02  1.6463e-02  6.6281e-01  3.2183e-03  0:04:20 1888
   113  3.7329e-03  2.7831e-02  1.6374e-02  6.3495e-01  3.7351e-03  0:03:28 1887
   114  4.4078e-03  2.8424e-02  1.6182e-02  5.9971e-01  4.4228e-03  0:02:46 1886
   115  5.1420e-03  2.8870e-02  1.5886e-02  5.5719e-01  5.1629e-03  0:02:13 1885
   116  5.8676e-03  2.9158e-02  1.5491e-02  5.0852e-01  5.8903e-03  0:01:46 1884
   117  6.5494e-03  2.9289e-02  1.5003e-02  4.5573e-01  6.5715e-03  0:01:25 1883
   118  7.1664e-03  2.9271e-02  1.4429e-02  4.0039e-01  7.1866e-03  0:01:08 1882
   119  7.7071e-03  2.9104e-02  1.3780e-02  3.4369e-01  7.7245e-03  0:00:54 1881
   120  8.1646e-03  2.8786e-02  1.3067e-02  2.8712e-01  8.1787e-03  0:00:43 1880
   121  8.5346e-03  2.8320e-02  1.2303e-02  2.3222e-01  8.5453e-03  0:06:51 1879

  iter  continuity  x-velocity  y-velocity  z-velocity      energy     time/iter
   122  8.8156e-03  2.7716e-02  1.1504e-02  1.8375e-01  8.8226e-03  0:05:28 1878
   123  9.0055e-03  2.6999e-02  1.0677e-02  1.4806e-01  9.0089e-03  0:04:22 1877
   124  9.1076e-03  2.6173e-02  9.8401e-03  1.3741e-01  9.1075e-03  0:03:30 1876
   125  9.1200e-03  2.5254e-02  8.9959e-03  1.5557e-01  9.1166e-03  0:02:48 1875
   126  9.0448e-03  2.4263e-02  8.1829e-03  1.9228e-01  9.0383e-03  0:02:14 1874
   127  8.8831e-03  2.3211e-02  7.4158e-03  2.3671e-01  8.8737e-03  0:01:47 1873
   128  8.6380e-03  2.2155e-02  6.6989e-03  2.8373e-01  8.6260e-03  0:01:26 1872
   129  8.3104e-03  2.1049e-02  6.0633e-03  3.2980e-01  8.2961e-03  0:01:09 1871
   130  7.9112e-03  1.9990e-02  5.5181e-03  3.7269e-01  7.8949e-03  0:00:55 1870
   131  7.4517e-03  1.9040e-02  5.0796e-03  4.1158e-01  7.4336e-03  0:00:44 1869
   132  6.9342e-03  1.8216e-02  4.7918e-03  4.4628e-01  6.9146e-03  0:06:49 1868

  iter  continuity  x-velocity  y-velocity  z-velocity      energy     time/iter
   133  6.3643e-03  1.7570e-02  4.6665e-03  4.7636e-01  6.3435e-03  0:05:27 1867
   134  5.7399e-03  1.6725e-02  4.6893e-03  5.0197e-01  5.7182e-03  0:04:21 1866
   135  5.0706e-03  1.5776e-02  4.7900e-03  5.2304e-01  5.0480e-03  0:03:29 1865
   136  4.3844e-03  1.5089e-02  4.9113e-03  5.4047e-01  4.3613e-03  0:02:47 1864
   137  3.6959e-03  1.4631e-02  5.0440e-03  5.5366e-01  3.6726e-03  0:02:14 1863
   138  3.0286e-03  1.4344e-02  5.2081e-03  5.6282e-01  3.0056e-03  0:01:47 1862
   139  2.4176e-03  1.4132e-02  5.3912e-03  5.6601e-01  2.3956e-03  0:01:25 1861
   140  1.9310e-03  1.3989e-02  5.5679e-03  5.6673e-01  1.9116e-03  0:01:08 1860
   141  1.6828e-03  1.3934e-02  5.7132e-03  5.6221e-01  1.6690e-03  0:00:55 1859
   142  1.7623e-03  1.3975e-02  5.8173e-03  5.5482e-01  1.7563e-03  0:00:44 1858
   143  2.0954e-03  1.4054e-02  5.8850e-03  5.4400e-01  2.0953e-03  0:06:46 1857

  iter  continuity  x-velocity  y-velocity  z-velocity      energy     time/iter
   144  2.5498e-03  1.4142e-02  5.9067e-03  5.3031e-01  2.5529e-03  0:05:25 1856
   145  3.0466e-03  1.4279e-02  5.8940e-03  5.1429e-01  3.0510e-03  0:04:20 1855
   146  3.5414e-03  1.4380e-02  5.8404e-03  4.9571e-01  3.5460e-03  0:03:28 1854
   147  4.0039e-03  1.4419e-02  5.7466e-03  4.7521e-01  4.0081e-03  0:02:46 1853
   148  4.4188e-03  1.4403e-02  5.6099e-03  4.5277e-01  4.4221e-03  0:02:13 1852
   149  4.7774e-03  1.4332e-02  5.4287e-03  4.2858e-01  4.7797e-03  0:01:46 1851
   150  5.0732e-03  1.4197e-02  5.2074e-03  4.0354e-01  5.0743e-03  0:01:25 1850
   151  5.3086e-03  1.4011e-02  4.9574e-03  3.7780e-01  5.3084e-03  0:01:08 1849
   152  5.4846e-03  1.3782e-02  4.6825e-03  3.5101e-01  5.4832e-03  0:00:54 1848
   153  5.5994e-03  1.3514e-02  4.3877e-03  3.2317e-01  5.5967e-03  0:00:43 1847
   154  5.6473e-03  1.3211e-02  4.0806e-03  2.9438e-01  5.6434e-03  0:00:35 1846

  iter  continuity  x-velocity  y-velocity  z-velocity      energy     time/iter
   155  5.6377e-03  1.2888e-02  3.7641e-03  2.6591e-01  5.6328e-03  0:06:37 1845
   156  5.5732e-03  1.2555e-02  3.4423e-03  2.3887e-01  5.5673e-03  0:05:17 1844
   157  5.4568e-03  1.2214e-02  3.1302e-03  2.1183e-01  5.4500e-03  0:04:14 1843
   158  5.2922e-03  1.1869e-02  2.8348e-03  1.8634e-01  5.2846e-03  0:03:23 1842
   159  5.0828e-03  1.1531e-02  2.5718e-03  1.6292e-01  5.0746e-03  0:02:42 1841
   160  4.8353e-03  1.1220e-02  2.3475e-03  1.4220e-01  4.8266e-03  0:02:10 1840
   161  4.5489e-03  1.0940e-02  2.1673e-03  1.2690e-01  4.5398e-03  0:01:44 1839
   162  4.2411e-03  1.0700e-02  2.0370e-03  1.1908e-01  4.2318e-03  0:01:23 1838
   163  3.9167e-03  1.0499e-02  1.9704e-03  1.2045e-01  3.9074e-03  0:01:06 1837
   164  3.5888e-03  1.0345e-02  1.9563e-03  1.3022e-01  3.5796e-03  0:00:53 1836
   165  3.2726e-03  1.0240e-02  1.9850e-03  1.4584e-01  3.2636e-03  0:00:42 1835

  iter  continuity  x-velocity  y-velocity  z-velocity      energy     time/iter
   166  2.9692e-03  1.0182e-02  2.0460e-03  1.6495e-01  2.9607e-03  0:00:34 1834
   167  2.7053e-03  1.0165e-02  2.1511e-03  1.8573e-01  2.6975e-03  0:06:34 1833
   168  2.4827e-03  1.0199e-02  2.2417e-03  2.0627e-01  2.4758e-03  0:05:15 1832
   169  2.3283e-03  1.0226e-02  2.3256e-03  2.2551e-01  2.3224e-03  0:04:12 1831
   170  2.2147e-03  1.0271e-02  2.4087e-03  2.4301e-01  2.2100e-03  0:03:21 1830
   171  2.1957e-03  1.0357e-02  2.4804e-03  2.5852e-01  2.1922e-03  0:02:41 1829
   172  2.2560e-03  1.0440e-02  2.5418e-03  2.7171e-01  2.2535e-03  0:02:09 1828
   173  2.3631e-03  1.0509e-02  2.5873e-03  2.8265e-01  2.3613e-03  0:01:43 1827
   174  2.5042e-03  1.0579e-02  2.6160e-03  2.9075e-01  2.5029e-03  0:01:22 1826
   175  2.6717e-03  1.0648e-02  2.6256e-03  2.9647e-01  2.6706e-03  0:01:06 1825
   176  2.8301e-03  1.0707e-02  2.6221e-03  2.9970e-01  2.8290e-03  0:00:53 1824

  iter  continuity  x-velocity  y-velocity  z-velocity      energy     time/iter
   177  2.9890e-03  1.0751e-02  2.6066e-03  3.0058e-01  2.9879e-03  0:00:42 1823
   178  3.1455e-03  1.0777e-02  2.5799e-03  2.9947e-01  3.1441e-03  0:00:34 1822
   179  3.2952e-03  1.0787e-02  2.5430e-03  2.9481e-01  3.2936e-03  0:06:31 1821
   180  3.4209e-03  1.0778e-02  2.4975e-03  2.8867e-01  3.4190e-03  0:05:13 1820
   181  3.5470e-03  1.0751e-02  2.4465e-03  2.8125e-01  3.5446e-03  0:04:10 1819
   182  3.6582e-03  1.0712e-02  2.3929e-03  2.7109e-01  3.6554e-03  0:03:20 1818
   183  3.7321e-03  1.0658e-02  2.3360e-03  2.5923e-01  3.7290e-03  0:02:40 1817
   184  3.7715e-03  1.0594e-02  2.2770e-03  2.4800e-01  3.7681e-03  0:02:08 1816
   185  3.7956e-03  1.0524e-02  2.2219e-03  2.3531e-01  3.7919e-03  0:01:42 1815
   186  3.8111e-03  1.0449e-02  2.1702e-03  2.2065e-01  3.8071e-03  0:01:22 1814
   187  3.8402e-03  1.0367e-02  2.1279e-03  2.0510e-01  3.8358e-03  0:01:05 1813

  iter  continuity  x-velocity  y-velocity  z-velocity      energy     time/iter
   188  3.8608e-03  1.0292e-02  2.1123e-03  1.8921e-01  3.8560e-03  0:00:52 1812
   189  3.8648e-03  1.0212e-02  2.0840e-03  1.7383e-01  3.8597e-03  0:00:42 1811
   190  3.8501e-03  1.0136e-02  2.0408e-03  1.5904e-01  3.8447e-03  0:00:33 1810
   191  3.8058e-03  1.0069e-02  2.0102e-03  1.4483e-01  3.8002e-03  0:06:28 1809
   192  3.7580e-03  1.0005e-02  1.9808e-03  1.3180e-01  3.7522e-03  0:05:11 1808
   193  3.7136e-03  9.9497e-03  1.9491e-03  1.1988e-01  3.7076e-03  0:04:08 1807
   194  3.6813e-03  9.9116e-03  1.9238e-03  1.0895e-01  3.6752e-03  0:03:19 1806
   195  3.6730e-03  9.8854e-03  1.9040e-03  1.0115e-01  3.6667e-03  0:02:39 1805
   196  3.6698e-03  9.8631e-03  1.8874e-03  9.7331e-02  3.6635e-03  0:02:07 1804
   197  3.6793e-03  9.8444e-03  1.8728e-03  9.7442e-02  3.6728e-03  0:01:42 1803
   198  3.7071e-03  9.8378e-03  1.8615e-03  1.0086e-01  3.7006e-03  0:01:21 1802

  iter  continuity  x-velocity  y-velocity  z-velocity      energy     time/iter
   199  3.7293e-03  9.8376e-03  1.8494e-03  1.0667e-01  3.7227e-03  0:01:05 1801
   200  3.7510e-03  9.8464e-03  1.8401e-03  1.1402e-01  3.7444e-03  0:00:52 1800
   201  3.7925e-03  9.8599e-03  1.8342e-03  1.2207e-01  3.7860e-03  0:00:41 1799
   202  3.8427e-03  9.8769e-03  1.8301e-03  1.2996e-01  3.8362e-03  0:06:33 1798
   203  3.9245e-03  9.8859e-03  1.8287e-03  1.3733e-01  3.9179e-03  0:05:14 1797
   204  4.0114e-03  9.8929e-03  1.8289e-03  1.4388e-01  4.0049e-03  0:04:11 1796
   205  4.0905e-03  9.9154e-03  1.8308e-03  1.4965e-01  4.0839e-03  0:03:21 1795
   206  4.1692e-03  9.9499e-03  1.8354e-03  1.5448e-01  4.1627e-03  0:02:41 1794
   207  4.2448e-03  9.9756e-03  1.8393e-03  1.5829e-01  4.2383e-03  0:02:08 1793
   208  4.3313e-03  9.9982e-03  1.8484e-03  1.6090e-01  4.3248e-03  0:01:43 1792
   209  4.3739e-03  9.9804e-03  1.8640e-03  1.6251e-01  4.3674e-03  0:01:22 1791

  iter  continuity  x-velocity  y-velocity  z-velocity      energy     time/iter
   210  4.4257e-03  1.0008e-02  1.8769e-03  1.6309e-01  4.4192e-03  0:01:06 1790
   211  4.4470e-03  1.0028e-02  1.8944e-03  1.6274e-01  4.4405e-03  0:00:52 1789
   212  4.4756e-03  1.0037e-02  1.9116e-03  1.6127e-01  4.4691e-03  0:00:42 1788
   213  4.4986e-03  1.0035e-02  1.9309e-03  1.5853e-01  4.4921e-03  0:00:34 1787
   214  4.5363e-03  1.0020e-02  1.9505e-03  1.5459e-01  4.5297e-03  0:06:24 1786
   215  4.5568e-03  1.0017e-02  1.9663e-03  1.5031e-01  4.5502e-03  0:05:07 1785
   216  4.5555e-03  9.9925e-03  1.9716e-03  1.4508e-01  4.5489e-03  0:04:05 1784
   217  4.5631e-03  9.9163e-03  1.9704e-03  1.3931e-01  4.5566e-03  0:03:16 1783
   218  4.5672e-03  9.8790e-03  1.9685e-03  1.3244e-01  4.5606e-03  0:02:37 1782
   219  4.5656e-03  9.8633e-03  1.9607e-03  1.2594e-01  4.5591e-03  0:02:05 1781
   220  4.5714e-03  9.8164e-03  1.9500e-03  1.2005e-01  4.5649e-03  0:01:40 1780

  iter  continuity  x-velocity  y-velocity  z-velocity      energy     time/iter
   221  4.6283e-03  9.7808e-03  1.9369e-03  1.1611e-01  4.6216e-03  0:01:20 1779
   222  4.5845e-03  9.6965e-03  1.9252e-03  1.1485e-01  4.5779e-03  0:01:04 1778
   223  4.4889e-03  9.6224e-03  1.9242e-03  1.1552e-01  4.4824e-03  0:00:51 1777
   224  4.3690e-03  9.5620e-03  1.9266e-03  1.1681e-01  4.3627e-03  0:06:36 1776
   225  4.2059e-03  9.4517e-03  1.9228e-03  1.2034e-01  4.1998e-03  0:05:17 1775
   226  4.0426e-03  9.3133e-03  1.9187e-03  1.2474e-01  4.0367e-03  0:04:13 1774
   227  3.8389e-03  9.1718e-03  1.9149e-03  1.3020e-01  3.8333e-03  0:03:23 1773
   228  3.6292e-03  9.0319e-03  1.9130e-03  1.3620e-01  3.6238e-03  0:02:42 1772
   229  3.4622e-03  8.8593e-03  1.9112e-03  1.4083e-01  3.4569e-03  0:02:09 1771
   230  3.3469e-03  8.6812e-03  1.9070e-03  1.4446e-01  3.3417e-03  0:01:44 1770
   231  3.2297e-03  8.4942e-03  1.8999e-03  1.5224e-01  3.2243e-03  0:01:23 1769

  iter  continuity  x-velocity  y-velocity  z-velocity      energy     time/iter
   232  3.0537e-03  8.2144e-03  1.8914e-03  1.5906e-01  3.0482e-03  0:01:06 1768
   233  2.8755e-03  7.9532e-03  1.8849e-03  1.6439e-01  2.8699e-03  0:00:53 1767
   234  2.7000e-03  7.7197e-03  1.8936e-03  1.6739e-01  2.6942e-03  0:00:42 1766
   235  2.5437e-03  7.5060e-03  1.9137e-03  1.6915e-01  2.5375e-03  0:00:34 1765
   236  2.4356e-03  7.3204e-03  1.9393e-03  1.7030e-01  2.4290e-03  0:06:20 1764
   237  2.3636e-03  7.1180e-03  1.9678e-03  1.7140e-01  2.3563e-03  0:05:04 1763
   238  2.3303e-03  6.9379e-03  1.9960e-03  1.7191e-01  2.3222e-03  0:04:03 1762
   239  2.3388e-03  6.7689e-03  2.0183e-03  1.7259e-01  2.3299e-03  0:03:14 1761
   240  2.3852e-03  6.6104e-03  2.0199e-03  1.7324e-01  2.3754e-03  0:02:35 1760
   241  2.4689e-03  6.4950e-03  2.0107e-03  1.7455e-01  2.4583e-03  0:02:04 1759
   242  2.5925e-03  6.4016e-03  2.0013e-03  1.7446e-01  2.5811e-03  0:01:39 1758

  iter  continuity  x-velocity  y-velocity  z-velocity      energy     time/iter
   243  2.7104e-03  6.3138e-03  1.9917e-03  1.7159e-01  2.6982e-03  0:07:11 1757
   244  2.8282e-03  6.2389e-03  1.9929e-03  1.6838e-01  2.8154e-03  0:05:44 1756
   245  2.9249e-03  6.2065e-03  2.0097e-03  1.6642e-01  2.9113e-03  0:04:35 1755
   246  3.0004e-03  6.2071e-03  2.0356e-03  1.6271e-01  2.9861e-03  0:03:40 1754
   247  3.0681e-03  6.2319e-03  2.0760e-03  1.5847e-01  3.0531e-03  0:02:56 1753
   248  3.1128e-03  6.2403e-03  2.1229e-03  1.5405e-01  3.0970e-03  0:02:21 1752
   249  3.1714e-03  6.2538e-03  2.1708e-03  1.5063e-01  3.1549e-03  0:01:53 1751
   250  3.2564e-03  6.2747e-03  2.2213e-03  1.4650e-01  3.2394e-03  0:01:30 1750
   251  3.3673e-03  6.2835e-03  2.2727e-03  1.4163e-01  3.3501e-03  0:01:12 1749
   252  3.5349e-03  6.3052e-03  2.3403e-03  1.3670e-01  3.5176e-03  0:00:58 1748
   253  3.7120e-03  6.3556e-03  2.4207e-03  1.3346e-01  3.6948e-03  0:00:46 1747

  iter  continuity  x-velocity  y-velocity  z-velocity      energy     time/iter
   254  3.8667e-03  6.4242e-03  2.5122e-03  1.3228e-01  3.8496e-03  0:06:26 1746
   255  3.9338e-03  6.5065e-03  2.6084e-03  1.3357e-01  3.9168e-03  0:05:09 1745
   256  3.9594e-03  6.6246e-03  2.7101e-03  1.3724e-01  3.9423e-03  0:04:07 1744
   257  3.9363e-03  6.7761e-03  2.8189e-03  1.4409e-01  3.9191e-03  0:03:17 1743
   258  3.9122e-03  7.0042e-03  2.9431e-03  1.5376e-01  3.8950e-03  0:02:38 1742
   259  3.9195e-03  7.2997e-03  3.0807e-03  1.6475e-01  3.9024e-03  0:02:06 1741
   260  3.9778e-03  7.7739e-03  3.2338e-03  1.7906e-01  3.9612e-03  0:01:41 1740
   261  3.9437e-03  7.9906e-03  3.3387e-03  1.9837e-01  3.9272e-03  0:01:21 1739
   262  3.9171e-03  8.4167e-03  3.4715e-03  2.2376e-01  3.9011e-03  0:01:04 1738
   263  3.9503e-03  9.0304e-03  3.6319e-03  2.5316e-01  3.9351e-03  0:00:52 1737
   264  4.0017e-03  9.6779e-03  3.8267e-03  2.7969e-01  3.9874e-03  0:00:41 1736

  iter  continuity  x-velocity  y-velocity  z-velocity      energy     time/iter
   265  3.9723e-03  1.0019e-02  4.0372e-03  2.8999e-01  3.9589e-03  0:06:20 1735
   266  3.9332e-03  1.0306e-02  4.2100e-03  2.8494e-01  3.9206e-03  0:05:04 1734
   267  3.8639e-03  1.0547e-02  4.3125e-03  2.7415e-01  3.8520e-03  0:04:03 1733
   268  3.7494e-03  1.0687e-02  4.3883e-03  2.5714e-01  3.7380e-03  0:03:14 1732
   269  3.6117e-03  1.0686e-02  4.4291e-03  2.3224e-01  3.6009e-03  0:02:35 1731
   270  3.4655e-03  1.0550e-02  4.4343e-03  2.0956e-01  3.4552e-03  0:02:04 1730
   271  3.3813e-03  1.0211e-02  4.4241e-03  1.8640e-01  3.3715e-03  0:01:39 1729
   272  3.3382e-03  9.8347e-03  4.4508e-03  1.6388e-01  3.3288e-03  0:01:19 1728
   273  3.3543e-03  9.5659e-03  4.6427e-03  1.4652e-01  3.3456e-03  0:01:03 1727
   274  3.3785e-03  9.3534e-03  4.4514e-03  1.3302e-01  3.3705e-03  0:00:51 1726
   275  3.3680e-03  9.1828e-03  4.2697e-03  1.2352e-01  3.3606e-03  0:06:26 1725

  iter  continuity  x-velocity  y-velocity  z-velocity      energy     time/iter
   276  3.2973e-03  9.0606e-03  4.1430e-03  1.1773e-01  3.2906e-03  0:05:08 1724
   277  3.1827e-03  8.9761e-03  4.0041e-03  1.1611e-01  3.1765e-03  0:04:06 1723
   278  3.1001e-03  8.9097e-03  3.8589e-03  1.1757e-01  3.0944e-03  0:03:17 1722
   279  3.0611e-03  8.8463e-03  3.7167e-03  1.1966e-01  3.0559e-03  0:02:38 1721
   280  3.0552e-03  8.7633e-03  3.5856e-03  1.2061e-01  3.0502e-03  0:02:06 1720
   281  3.0625e-03  8.6627e-03  3.4615e-03  1.2016e-01  3.0576e-03  0:01:41 1719
   282  3.0905e-03  8.5376e-03  3.3354e-03  1.1953e-01  3.0855e-03  0:01:21 1718
   283  3.1626e-03  8.3842e-03  3.2103e-03  1.1840e-01  3.1574e-03  0:06:48 1717
   284  3.2609e-03  8.2393e-03  3.0894e-03  1.1752e-01  3.2556e-03  0:05:26 1716
   285  3.3288e-03  8.1072e-03  2.9593e-03  1.1682e-01  3.3234e-03  0:04:21 1715
   286  3.3524e-03  8.0009e-03  2.8515e-03  1.1636e-01  3.3469e-03  0:03:28 1714

  iter  continuity  x-velocity  y-velocity  z-velocity      energy     time/iter
   287  3.3626e-03  7.8744e-03  2.7461e-03  1.1552e-01  3.3571e-03  0:02:47 1713
   288  3.3379e-03  7.7605e-03  2.6200e-03  1.1428e-01  3.3323e-03  0:02:13 1712
   289  3.3078e-03  7.6602e-03  2.4922e-03  1.1262e-01  3.3021e-03  0:01:47 1711
   290  3.2660e-03  7.5606e-03  2.3764e-03  1.1208e-01  3.2604e-03  0:01:25 1710
   291  3.2450e-03  7.4655e-03  2.2757e-03  1.1309e-01  3.2393e-03  0:01:08 1709
   292  3.2675e-03  7.3738e-03  2.1847e-03  1.1484e-01  3.2619e-03  0:06:36 1708
   293  3.2390e-03  7.3006e-03  2.1018e-03  1.1675e-01  3.2333e-03  0:05:17 1707
   294  3.1564e-03  7.2358e-03  2.0236e-03  1.1871e-01  3.1507e-03  0:04:13 1706
   295  3.0624e-03  7.1692e-03  1.9495e-03  1.1971e-01  3.0566e-03  0:03:22 1705
   296  2.9902e-03  7.0940e-03  1.8754e-03  1.2045e-01  2.9844e-03  0:02:42 1704
   297  2.9448e-03  7.0199e-03  1.8008e-03  1.2041e-01  2.9389e-03  0:02:09 1703

  iter  continuity  x-velocity  y-velocity  z-velocity      energy     time/iter
   298  2.9176e-03  6.9395e-03  1.7265e-03  1.1914e-01  2.9116e-03  0:01:43 1702
   299  2.9010e-03  6.8574e-03  1.6571e-03  1.1757e-01  2.8949e-03  0:01:23 1701
   300  2.8780e-03  6.7716e-03  1.5906e-03  1.1668e-01  2.8718e-03  0:01:06 1700
   301  2.8400e-03  6.6885e-03  1.5325e-03  1.1740e-01  2.8337e-03  0:00:53 1699
   302  2.7908e-03  6.6154e-03  1.4844e-03  1.2013e-01  2.7844e-03  0:06:22 1698
   303  2.7337e-03  6.5555e-03  1.4455e-03  1.2413e-01  2.7271e-03  0:05:05 1697
   304  2.6648e-03  6.5102e-03  1.4181e-03  1.2822e-01  2.6582e-03  0:04:04 1696
   305  2.5966e-03  6.4820e-03  1.4035e-03  1.3223e-01  2.5900e-03  0:03:15 1695
   306  2.5335e-03  6.4665e-03  1.4027e-03  1.3517e-01  2.5268e-03  0:02:36 1694
   307  2.4834e-03  6.4636e-03  1.4139e-03  1.3739e-01  2.4769e-03  0:02:05 1693
   308  2.4372e-03  6.4748e-03  1.4366e-03  1.3852e-01  2.4308e-03  0:01:40 1692

  iter  continuity  x-velocity  y-velocity  z-velocity      energy     time/iter
   309  2.3864e-03  6.4956e-03  1.4690e-03  1.3912e-01  2.3803e-03  0:01:20 1691
   310  2.3211e-03  6.5206e-03  1.5073e-03  1.3900e-01  2.3151e-03  0:01:04 1690
   311  2.2372e-03  6.5451e-03  1.5464e-03  1.3866e-01  2.2316e-03  0:06:29 1689
   312  2.1326e-03  6.5638e-03  1.5832e-03  1.3753e-01  2.1273e-03  0:05:11 1688
   313  2.0123e-03  6.5693e-03  1.6160e-03  1.3608e-01  2.0073e-03  0:04:09 1687
   314  1.8817e-03  6.5636e-03  1.6426e-03  1.3345e-01  1.8770e-03  0:03:19 1686
   315  1.7476e-03  6.5422e-03  1.6552e-03  1.2927e-01  1.7434e-03  0:02:39 1685
   316  1.6180e-03  6.5011e-03  1.6586e-03  1.2447e-01  1.6142e-03  0:02:07 1684
   317  1.4981e-03  6.4433e-03  1.6587e-03  1.1983e-01  1.4947e-03  0:01:42 1683
   318  1.3812e-03  6.3656e-03  1.6546e-03  1.1632e-01  1.3782e-03  0:01:21 1682
   319  1.2756e-03  6.2860e-03  1.6355e-03  1.1321e-01  1.2731e-03  0:01:05 1681

  iter  continuity  x-velocity  y-velocity  z-velocity      energy     time/iter
   320  1.1818e-03  6.2220e-03  1.6273e-03  1.1086e-01  1.1797e-03  0:00:52 1680
   321  1.0950e-03  6.1653e-03  1.6235e-03  1.0954e-01  1.0934e-03  0:06:17 1679
   322  1.0280e-03  6.1162e-03  1.6212e-03  1.0788e-01  1.0268e-03  0:05:02 1678
   323  9.7507e-04  6.0795e-03  1.6163e-03  1.0620e-01  9.7422e-04  0:04:01 1677
   324  9.4775e-04  6.0503e-03  1.6061e-03  1.0360e-01  9.4720e-04  0:03:13 1676
   325  9.8285e-04  6.0284e-03  1.5894e-03  1.0135e-01  9.8249e-04  0:02:34 1675
   326  1.0757e-03  6.0110e-03  1.5671e-03  9.8946e-02  1.0754e-03  0:02:03 1674
   327  1.2078e-03  5.9956e-03  1.5417e-03  9.6622e-02  1.2075e-03  0:01:39 1673
   328  1.3584e-03  5.9803e-03  1.5132e-03  9.5098e-02  1.3579e-03  0:01:19 1672
   329  1.5056e-03  5.9653e-03  1.4822e-03  9.4390e-02  1.5050e-03  0:01:03 1671
   330  1.6438e-03  5.9503e-03  1.4520e-03  9.4152e-02  1.6430e-03  0:00:50 1670

  iter  continuity  x-velocity  y-velocity  z-velocity      energy     time/iter
   331  1.7761e-03  5.9385e-03  1.4252e-03  9.3611e-02  1.7750e-03  0:06:14 1669
   332  1.8971e-03  5.9295e-03  1.4051e-03  9.2968e-02  1.8958e-03  0:04:59 1668
   333  2.0081e-03  5.9283e-03  1.3961e-03  9.2454e-02  2.0065e-03  0:03:59 1667
   334  2.1173e-03  5.9374e-03  1.4008e-03  9.2271e-02  2.1155e-03  0:03:11 1666
   335  2.2191e-03  5.9597e-03  1.4200e-03  9.2267e-02  2.2170e-03  0:02:33 1665
   336  2.2915e-03  5.9924e-03  1.4477e-03  9.2906e-02  2.2890e-03  0:02:02 1664
   337  2.3620e-03  6.0375e-03  1.4995e-03  9.4318e-02  2.3592e-03  0:01:38 1663
   338  2.4258e-03  6.0932e-03  1.5820e-03  9.5970e-02  2.4227e-03  0:01:18 1662
   339  2.4808e-03  6.1935e-03  1.6990e-03  9.8763e-02  2.4774e-03  0:01:02 1661
   340  2.5111e-03  6.3318e-03  1.8319e-03  9.9691e-02  2.5075e-03  0:00:50 1660
   341  2.5296e-03  6.4702e-03  1.8774e-03  1.0059e-01  2.5257e-03  0:00:40 1659

  iter  continuity  x-velocity  y-velocity  z-velocity      energy     time/iter
   342  2.5406e-03  6.6160e-03  1.9654e-03  1.0167e-01  2.5364e-03  0:06:04 1658
   343  2.5367e-03  6.7990e-03  2.0961e-03  1.0228e-01  2.5322e-03  0:04:51 1657
   344  2.5113e-03  6.9769e-03  2.2088e-03  1.0250e-01  2.5066e-03  0:03:52 1656
   345  2.4895e-03  7.1171e-03  2.3091e-03  1.0343e-01  2.4846e-03  0:03:06 1655
   346  2.5023e-03  7.2573e-03  2.3897e-03  1.0633e-01  2.4973e-03  0:02:29 1654
   347  2.4799e-03  7.3777e-03  2.4520e-03  1.0759e-01  2.4747e-03  0:01:59 1653
   348  2.4742e-03  7.4851e-03  2.4886e-03  1.0797e-01  2.4688e-03  0:01:35 1652
   349  2.4685e-03  7.5995e-03  2.5208e-03  1.0788e-01  2.4630e-03  0:01:16 1651
   350  2.4306e-03  7.6813e-03  2.5359e-03  1.0685e-01  2.4250e-03  0:01:01 1650
   351  2.3850e-03  7.7327e-03  2.5178e-03  1.0454e-01  2.3793e-03  0:06:18 1649
   352  2.3362e-03  7.7510e-03  2.4852e-03  1.0204e-01  2.3303e-03  0:05:02 1648

  iter  continuity  x-velocity  y-velocity  z-velocity      energy     time/iter
   353  2.2799e-03  7.7581e-03  2.4591e-03  9.9750e-02  2.2739e-03  0:04:02 1647
   354  2.2145e-03  7.7217e-03  2.4421e-03  9.7823e-02  2.2083e-03  0:03:13 1646
   355  2.1563e-03  7.6525e-03  2.4340e-03  9.4322e-02  2.1501e-03  0:02:35 1645
   356  2.1133e-03  7.6055e-03  2.4216e-03  9.0704e-02  2.1071e-03  0:02:04 1644
   357  2.0948e-03  7.5550e-03  2.4127e-03  8.7334e-02  2.0887e-03  0:01:39 1643
   358  2.0833e-03  7.4920e-03  2.3821e-03  8.5002e-02  2.0771e-03  0:01:19 1642
   359  2.0652e-03  7.4469e-03  2.3365e-03  8.2563e-02  2.0589e-03  0:01:03 1641
   360  2.0391e-03  7.4094e-03  2.2823e-03  8.0259e-02  2.0327e-03  0:00:51 1640
   361  1.9817e-03  7.3527e-03  2.2295e-03  7.8688e-02  1.9752e-03  0:00:40 1639
   362  1.9343e-03  7.2877e-03  2.1835e-03  7.6784e-02  1.9277e-03  0:06:00 1638
   363  1.9017e-03  7.2297e-03  2.1194e-03  7.4203e-02  1.8950e-03  0:04:48 1637

  iter  continuity  x-velocity  y-velocity  z-velocity      energy     time/iter
   364  1.8755e-03  7.1678e-03  2.0653e-03  7.3607e-02  1.8688e-03  0:03:50 1636
   365  1.8557e-03  7.0948e-03  2.0162e-03  7.2103e-02  1.8489e-03  0:03:04 1635
   366  1.8497e-03  7.0299e-03  1.9700e-03  7.1129e-02  1.8429e-03  0:02:27 1634
   367  1.8502e-03  6.9798e-03  1.9219e-03  6.9788e-02  1.8434e-03  0:01:58 1633
   368  1.8499e-03  6.9418e-03  1.8749e-03  6.9491e-02  1.8432e-03  0:01:34 1632
   369  1.8507e-03  6.8958e-03  1.8325e-03  7.0387e-02  1.8441e-03  0:01:15 1631
   370  1.8494e-03  6.8419e-03  1.7948e-03  7.1569e-02  1.8429e-03  0:06:26 1630
   371  1.8475e-03  6.7644e-03  1.7601e-03  7.2953e-02  1.8411e-03  0:05:09 1629
   372  1.8521e-03  6.7038e-03  1.7285e-03  7.3929e-02  1.8457e-03  0:04:07 1628
   373  1.8556e-03  6.6529e-03  1.6942e-03  7.4922e-02  1.8493e-03  0:03:17 1627
   374  1.8727e-03  6.6099e-03  1.6585e-03  7.5560e-02  1.8665e-03  0:02:38 1626

  iter  continuity  x-velocity  y-velocity  z-velocity      energy     time/iter
   375  1.8882e-03  6.5643e-03  1.6313e-03  7.6864e-02  1.8820e-03  0:02:06 1625
   376  1.9225e-03  6.5173e-03  1.6080e-03  7.8013e-02  1.9164e-03  0:01:41 1624
   377  1.9883e-03  6.4746e-03  1.5876e-03  7.9804e-02  1.9823e-03  0:06:45 1623
   378  2.0920e-03  6.4354e-03  1.5709e-03  8.0205e-02  2.0861e-03  0:05:24 1622
   379  2.0939e-03  6.4009e-03  1.5574e-03  8.2103e-02  2.0880e-03  0:04:19 1621
   380  2.0417e-03  6.3704e-03  1.5470e-03  8.4468e-02  2.0357e-03  0:03:27 1620
   381  1.9816e-03  6.3430e-03  1.5401e-03  8.6650e-02  1.9756e-03  0:02:46 1619
   382  1.9194e-03  6.3140e-03  1.5357e-03  8.8858e-02  1.9133e-03  0:02:12 1618
   383  1.8591e-03  6.2842e-03  1.5337e-03  9.0927e-02  1.8529e-03  0:01:46 1617
   384  1.8041e-03  6.2509e-03  1.5341e-03  9.3280e-02  1.7979e-03  0:06:48 1616
   385  1.7600e-03  6.2146e-03  1.5367e-03  9.5553e-02  1.7537e-03  0:05:26 1615

  iter  continuity  x-velocity  y-velocity  z-velocity      energy     time/iter
   386  1.7249e-03  6.1684e-03  1.5400e-03  9.7460e-02  1.7185e-03  0:04:21 1614
   387  1.6935e-03  6.1233e-03  1.5431e-03  9.9029e-02  1.6869e-03  0:03:28 1613
   388  1.6671e-03  6.0808e-03  1.5457e-03  1.0006e-01  1.6604e-03  0:02:47 1612
   389  1.6444e-03  6.0391e-03  1.5483e-03  1.0055e-01  1.6376e-03  0:02:13 1611
   390  1.6249e-03  5.9934e-03  1.5510e-03  1.0038e-01  1.6179e-03  0:01:47 1610
   391  1.6082e-03  5.9486e-03  1.5533e-03  9.9881e-02  1.6010e-03  0:06:47 1609
   392  1.5930e-03  5.9058e-03  1.5563e-03  9.8950e-02  1.5856e-03  0:05:25 1608
   393  1.5764e-03  5.8649e-03  1.5597e-03  9.7859e-02  1.5688e-03  0:04:20 1607
   394  1.5613e-03  5.8251e-03  1.5637e-03  9.6838e-02  1.5534e-03  0:03:28 1606
   395  1.5452e-03  5.7876e-03  1.5680e-03  9.5857e-02  1.5369e-03  0:02:46 1605
   396  1.5278e-03  5.7538e-03  1.5723e-03  9.4646e-02  1.5193e-03  0:02:13 1604

  iter  continuity  x-velocity  y-velocity  z-velocity      energy     time/iter
   397  1.5108e-03  5.7224e-03  1.5769e-03  9.3237e-02  1.5019e-03  0:01:46 1603
   398  1.4950e-03  5.6936e-03  1.5815e-03  9.1532e-02  1.4857e-03  0:06:45 1602
   399  1.4804e-03  5.6682e-03  1.5862e-03  8.9678e-02  1.4707e-03  0:05:24 1601
   400  1.4669e-03  5.6441e-03  1.5912e-03  8.7756e-02  1.4567e-03  0:04:19 1600
   401  1.4544e-03  5.6213e-03  1.5959e-03  8.5705e-02  1.4438e-03  0:03:27 1599
   402  1.4434e-03  5.5998e-03  1.5998e-03  8.3478e-02  1.4322e-03  0:02:46 1598
   403  1.4346e-03  5.5809e-03  1.6036e-03  8.0939e-02  1.4230e-03  0:02:12 1597
   404  1.4288e-03  5.5637e-03  1.6071e-03  7.8067e-02  1.4167e-03  0:01:46 1596
   405  1.4277e-03  5.5483e-03  1.6104e-03  7.4925e-02  1.4151e-03  0:01:25 1595
   406  1.4304e-03  5.5344e-03  1.6140e-03  7.1646e-02  1.4174e-03  0:06:26 1594
   407  1.4362e-03  5.5227e-03  1.6190e-03  6.8255e-02  1.4227e-03  0:05:09 1593

  iter  continuity  x-velocity  y-velocity  z-velocity      energy     time/iter
   408  1.4450e-03  5.5132e-03  1.6234e-03  6.4839e-02  1.4312e-03  0:04:07 1592
   409  1.4546e-03  5.5050e-03  1.6259e-03  6.1596e-02  1.4404e-03  0:03:18 1591
   410  1.4690e-03  5.4966e-03  1.6301e-03  5.8481e-02  1.4545e-03  0:02:38 1590
   411  1.4826e-03  5.4869e-03  1.6351e-03  5.5648e-02  1.4678e-03  0:02:06 1589
   412  1.4935e-03  5.4776e-03  1.6414e-03  5.3214e-02  1.4784e-03  0:01:41 1588
   413  1.5036e-03  5.4713e-03  1.6483e-03  5.1314e-02  1.4882e-03  0:06:38 1587
   414  1.5126e-03  5.4656e-03  1.6562e-03  5.0034e-02  1.4970e-03  0:05:18 1586
   415  1.5205e-03  5.4609e-03  1.6654e-03  4.9363e-02  1.5047e-03  0:04:14 1585
   416  1.5269e-03  5.4538e-03  1.6754e-03  4.9342e-02  1.5109e-03  0:03:23 1584
   417  1.5304e-03  5.4483e-03  1.6863e-03  4.9946e-02  1.5142e-03  0:02:43 1583
   418  1.5305e-03  5.4417e-03  1.6984e-03  5.1009e-02  1.5142e-03  0:02:10 1582

  iter  continuity  x-velocity  y-velocity  z-velocity      energy     time/iter
   419  1.5275e-03  5.4375e-03  1.7111e-03  5.2460e-02  1.5110e-03  0:01:44 1581
   420  1.5214e-03  5.4362e-03  1.7249e-03  5.4089e-02  1.5048e-03  0:06:39 1580
   421  1.5123e-03  5.4345e-03  1.7390e-03  5.5773e-02  1.4956e-03  0:05:19 1579
   422  1.4995e-03  5.4294e-03  1.7533e-03  5.7441e-02  1.4828e-03  0:04:15 1578
   423  1.4833e-03  5.4295e-03  1.7675e-03  5.9026e-02  1.4666e-03  0:03:24 1577
   424  1.4642e-03  5.4297e-03  1.7827e-03  6.0491e-02  1.4475e-03  0:02:43 1576
   425  1.4412e-03  5.4328e-03  1.7972e-03  6.1787e-02  1.4244e-03  0:02:10 1575
   426  1.4130e-03  5.4341e-03  1.8116e-03  6.2883e-02  1.3963e-03  0:01:44 1574
   427  1.3833e-03  5.4339e-03  1.8253e-03  6.3728e-02  1.3666e-03  0:01:23 1573
   428  1.3494e-03  5.4386e-03  1.8381e-03  6.4437e-02  1.3327e-03  0:06:21 1572
   429  1.3141e-03  5.4472e-03  1.8500e-03  6.5009e-02  1.2975e-03  0:05:05 1571

  iter  continuity  x-velocity  y-velocity  z-velocity      energy     time/iter
   430  1.2742e-03  5.4517e-03  1.8605e-03  6.5356e-02  1.2576e-03  0:04:04 1570
   431  1.2344e-03  5.4595e-03  1.8698e-03  6.5438e-02  1.2179e-03  0:03:15 1569
   432  1.1949e-03  5.4706e-03  1.8770e-03  6.5273e-02  1.1786e-03  0:02:36 1568
   433  1.1557e-03  5.4830e-03  1.8814e-03  6.4873e-02  1.1395e-03  0:02:04 1567
   434  1.1166e-03  5.4949e-03  1.8837e-03  6.4177e-02  1.1006e-03  0:06:53 1566
   435  1.0791e-03  5.5057e-03  1.8834e-03  6.3216e-02  1.0633e-03  0:05:30 1565
   436  1.0437e-03  5.5140e-03  1.8804e-03  6.1989e-02  1.0281e-03  0:04:24 1564
   437  1.0111e-03  5.5185e-03  1.8745e-03  6.0454e-02  9.9569e-04  0:03:31 1563
   438  9.8160e-04  5.5201e-03  1.8660e-03  5.8698e-02  9.6643e-04  0:02:49 1562
   439  9.5433e-04  5.5192e-03  1.8557e-03  5.6691e-02  9.3940e-04  0:02:15 1561
   440  9.3005e-04  5.5169e-03  1.8430e-03  5.4508e-02  9.1537e-04  0:01:48 1560

  iter  continuity  x-velocity  y-velocity  z-velocity      energy     time/iter
   441  9.0869e-04  5.5137e-03  1.8283e-03  5.2169e-02  8.9425e-04  0:06:38 1559
   442  8.9047e-04  5.5063e-03  1.8119e-03  4.9582e-02  8.7626e-04  0:05:18 1558
   443  8.7564e-04  5.4928e-03  1.7939e-03  4.6955e-02  8.6162e-04  0:04:14 1557
   444  8.6748e-04  5.4743e-03  1.7749e-03  4.4234e-02  8.5368e-04  0:03:23 1556
   445  8.5767e-04  5.4507e-03  1.7542e-03  4.1359e-02  8.4400e-04  0:02:43 1555
   446  8.4999e-04  5.4250e-03  1.7326e-03  3.8598e-02  8.3639e-04  0:02:10 1554
   447  8.4618e-04  5.4000e-03  1.7109e-03  3.5887e-02  8.3263e-04  0:01:44 1553
   448  8.4620e-04  5.3762e-03  1.6894e-03  3.3426e-02  8.3266e-04  0:06:33 1552
   449  8.5008e-04  5.3494e-03  1.6684e-03  3.1384e-02  8.3651e-04  0:05:15 1551
   450  8.5814e-04  5.3208e-03  1.6489e-03  2.9767e-02  8.4450e-04  0:04:12 1550
   451  8.6859e-04  5.2859e-03  1.6321e-03  2.8570e-02  8.5482e-04  0:03:21 1549

  iter  continuity  x-velocity  y-velocity  z-velocity      energy     time/iter
   452  8.8449e-04  5.2521e-03  1.6169e-03  2.7970e-02  8.7059e-04  0:02:41 1548
   453  9.0118e-04  5.2191e-03  1.6029e-03  2.7976e-02  8.8709e-04  0:02:09 1547
   454  9.1651e-04  5.1741e-03  1.5916e-03  2.8570e-02  9.0215e-04  0:01:43 1546
   455  9.2776e-04  5.1143e-03  1.5827e-03  2.9666e-02  9.1301e-04  0:06:31 1545
   456  9.4660e-04  5.0651e-03  1.5756e-03  3.1152e-02  9.3153e-04  0:05:13 1544
   457  9.6755e-04  5.0188e-03  1.5715e-03  3.2908e-02  9.5215e-04  0:04:10 1543
   458  9.8950e-04  4.9740e-03  1.5704e-03  3.4838e-02  9.7375e-04  0:03:20 1542
   459  1.0150e-03  4.9258e-03  1.5718e-03  3.6868e-02  9.9889e-04  0:02:40 1541
   460  1.0427e-03  4.8816e-03  1.5758e-03  3.8910e-02  1.0263e-03  0:02:08 1540
   461  1.0719e-03  4.8412e-03  1.5825e-03  4.0906e-02  1.0551e-03  0:01:42 1539
   462  1.1015e-03  4.8000e-03  1.5926e-03  4.2808e-02  1.0844e-03  0:06:29 1538

  iter  continuity  x-velocity  y-velocity  z-velocity      energy     time/iter
   463  1.1330e-03  4.7618e-03  1.6058e-03  4.4623e-02  1.1156e-03  0:05:11 1537
   464  1.1655e-03  4.7270e-03  1.6212e-03  4.6321e-02  1.1478e-03  0:04:09 1536
   465  1.1977e-03  4.6926e-03  1.6383e-03  4.7879e-02  1.1797e-03  0:03:19 1535
   466  1.2270e-03  4.6562e-03  1.6578e-03  4.9313e-02  1.2087e-03  0:02:39 1534
   467  1.2556e-03  4.6206e-03  1.6787e-03  5.0607e-02  1.2369e-03  0:07:14 1533
   468  1.2831e-03  4.5867e-03  1.7007e-03  5.1718e-02  1.2642e-03  0:05:47 1532
   469  1.3087e-03  4.5535e-03  1.7240e-03  5.2660e-02  1.2895e-03  0:04:37 1531
   470  1.3318e-03  4.5186e-03  1.7484e-03  5.3434e-02  1.3123e-03  0:03:42 1530
   471  1.3523e-03  4.4818e-03  1.7738e-03  5.4013e-02  1.3324e-03  0:02:57 1529
   472  1.3696e-03  4.4496e-03  1.8001e-03  5.4466e-02  1.3494e-03  0:02:22 1528
   473  1.3841e-03  4.4181e-03  1.8271e-03  5.4767e-02  1.3637e-03  0:01:53 1527

  iter  continuity  x-velocity  y-velocity  z-velocity      energy     time/iter
   474  1.3955e-03  4.3838e-03  1.8542e-03  5.4977e-02  1.3749e-03  0:06:36 1526
   475  1.4038e-03  4.3481e-03  1.8810e-03  5.5089e-02  1.3829e-03  0:05:16 1525
   476  1.4091e-03  4.3134e-03  1.9075e-03  5.5094e-02  1.3879e-03  0:04:13 1524
   477  1.4119e-03  4.2765e-03  1.9335e-03  5.4931e-02  1.3906e-03  0:03:22 1523
   478  1.4112e-03  4.2430e-03  1.9592e-03  5.4589e-02  1.3897e-03  0:02:42 1522
   479  1.4066e-03  4.2110e-03  1.9845e-03  5.4122e-02  1.3849e-03  0:02:09 1521
   480  1.3996e-03  4.1806e-03  2.0080e-03  5.3518e-02  1.3778e-03  0:01:43 1520
   481  1.3899e-03  4.1510e-03  2.0296e-03  5.2766e-02  1.3680e-03  0:06:26 1519
   482  1.3781e-03  4.1245e-03  2.0499e-03  5.1885e-02  1.3561e-03  0:05:09 1518
   483  1.3632e-03  4.0988e-03  2.0685e-03  5.0843e-02  1.3411e-03  0:04:07 1517
   484  1.3458e-03  4.0765e-03  2.0852e-03  4.9678e-02  1.3236e-03  0:03:17 1516

  iter  continuity  x-velocity  y-velocity  z-velocity      energy     time/iter
   485  1.3261e-03  4.0471e-03  2.0996e-03  4.8401e-02  1.3038e-03  0:02:38 1515
   486  1.3051e-03  4.0209e-03  2.1118e-03  4.7010e-02  1.2828e-03  0:02:06 1514
   487  1.2822e-03  3.9981e-03  2.1217e-03  4.5544e-02  1.2599e-03  0:01:41 1513
   488  1.2572e-03  3.9790e-03  2.1293e-03  4.4016e-02  1.2349e-03  0:06:23 1512
   489  1.2316e-03  3.9676e-03  2.1344e-03  4.2434e-02  1.2094e-03  0:05:06 1511
   490  1.2054e-03  3.9612e-03  2.1370e-03  4.0788e-02  1.1831e-03  0:04:05 1510
   491  1.1773e-03  3.9591e-03  2.1377e-03  3.9075e-02  1.1551e-03  0:03:16 1509
   492  1.1493e-03  3.9576e-03  2.1359e-03  3.7300e-02  1.1273e-03  0:02:36 1508
   493  1.1202e-03  3.9371e-03  2.1314e-03  3.5520e-02  1.0982e-03  0:02:05 1507
   494  1.0921e-03  3.9114e-03  2.1241e-03  3.3749e-02  1.0702e-03  0:01:40 1506
   495  1.0641e-03  3.8867e-03  2.1143e-03  3.1987e-02  1.0424e-03  0:06:21 1505

  iter  continuity  x-velocity  y-velocity  z-velocity      energy     time/iter
   496  1.0362e-03  3.8615e-03  2.1022e-03  3.0236e-02  1.0146e-03  0:05:05 1504
   497  1.0086e-03  3.8359e-03  2.0877e-03  2.8505e-02  9.8722e-04  0:04:03 1503
   498  9.8169e-04  3.8084e-03  2.0713e-03  2.6823e-02  9.6044e-04  0:03:15 1502
   499  9.5553e-04  3.7789e-03  2.0529e-03  2.5208e-02  9.3446e-04  0:02:36 1501
   500  9.3030e-04  3.7483e-03  2.0328e-03  2.3683e-02  9.0942e-04  0:02:04 1500
   501  9.0604e-04  3.7170e-03  2.0111e-03  2.2214e-02  8.8538e-04  0:01:39 1499
   502  8.8267e-04  3.6831e-03  1.9879e-03  2.0828e-02  8.6224e-04  0:06:19 1498
   503  8.6063e-04  3.6491e-03  1.9633e-03  1.9556e-02  8.4045e-04  0:05:03 1497
   504  8.3940e-04  3.6149e-03  1.9373e-03  1.8407e-02  8.1946e-04  0:04:02 1496
   505  8.2029e-04  3.5805e-03  1.9106e-03  1.7398e-02  8.0063e-04  0:03:14 1495
   506  8.0207e-04  3.5469e-03  1.8827e-03  1.6548e-02  7.8269e-04  0:02:35 1494

  iter  continuity  x-velocity  y-velocity  z-velocity      energy     time/iter
   507  7.8440e-04  3.5114e-03  1.8541e-03  1.5842e-02  7.6531e-04  0:02:04 1493
   508  7.6800e-04  3.4770e-03  1.8253e-03  1.5249e-02  7.4921e-04  0:01:39 1492
   509  7.5154e-04  3.4376e-03  1.7957e-03  1.4775e-02  7.3303e-04  0:06:17 1491
   510  7.3574e-04  3.3946e-03  1.7656e-03  1.4428e-02  7.1748e-04  0:05:02 1490
   511  7.2121e-04  3.3511e-03  1.7351e-03  1.4178e-02  7.0322e-04  0:04:01 1489
   512  7.0793e-04  3.3080e-03  1.7044e-03  1.4005e-02  6.9021e-04  0:03:13 1488
   513  6.9617e-04  3.2661e-03  1.6739e-03  1.3867e-02  6.7873e-04  0:02:34 1487
   514  6.8556e-04  3.2251e-03  1.6436e-03  1.3754e-02  6.6840e-04  0:02:03 1486
   515  6.7546e-04  3.1832e-03  1.6135e-03  1.3692e-02  6.5858e-04  0:01:39 1485
   516  6.6572e-04  3.1366e-03  1.5836e-03  1.3645e-02  6.4910e-04  0:06:16 1484
   517  6.5672e-04  3.0888e-03  1.5540e-03  1.3598e-02  6.4034e-04  0:05:00 1483

  iter  continuity  x-velocity  y-velocity  z-velocity      energy     time/iter
   518  6.4848e-04  3.0399e-03  1.5248e-03  1.3538e-02  6.3234e-04  0:04:00 1482
   519  6.4008e-04  2.9898e-03  1.4959e-03  1.3473e-02  6.2415e-04  0:03:12 1481
   520  6.3355e-04  2.9399e-03  1.4676e-03  1.3402e-02  6.1785e-04  0:02:33 1480
   521  6.2797e-04  2.8910e-03  1.4399e-03  1.3324e-02  6.1249e-04  0:02:03 1479
   522  6.2368e-04  2.8439e-03  1.4129e-03  1.3242e-02  6.0843e-04  0:01:38 1478
   523  6.1995e-04  2.7972e-03  1.3867e-03  1.3160e-02  6.0493e-04  0:06:14 1477
   524  6.1663e-04  2.7516e-03  1.3614e-03  1.3081e-02  6.0183e-04  0:04:59 1476
   525  6.1359e-04  2.7066e-03  1.3369e-03  1.3027e-02  5.9900e-04  0:03:59 1475
   526  6.1042e-04  2.6636e-03  1.3133e-03  1.2981e-02  5.9601e-04  0:03:11 1474
   527  6.0665e-04  2.6220e-03  1.2907e-03  1.2940e-02  5.9241e-04  0:02:33 1473
   528  6.0200e-04  2.5858e-03  1.2695e-03  1.2906e-02  5.8789e-04  0:02:02 1472

  iter  continuity  x-velocity  y-velocity  z-velocity      energy     time/iter
   529  6.0152e-04  2.5542e-03  1.2488e-03  1.2878e-02  5.8764e-04  0:01:38 1471
   530  6.0106e-04  2.5231e-03  1.2291e-03  1.2856e-02  5.8738e-04  0:06:12 1470
   531  6.0059e-04  2.4917e-03  1.2104e-03  1.2762e-02  5.8710e-04  0:04:57 1469
   532  6.0025e-04  2.4613e-03  1.1928e-03  1.2815e-02  5.8694e-04  0:03:58 1468
   533  5.9987e-04  2.4307e-03  1.1762e-03  1.2841e-02  5.8672e-04  0:03:10 1467
   534  5.9894e-04  2.3982e-03  1.1607e-03  1.2899e-02  5.8593e-04  0:02:32 1466
   535  5.9755e-04  2.3657e-03  1.1460e-03  1.2882e-02  5.8467e-04  0:02:01 1465
   536  5.9229e-04  2.3342e-03  1.1328e-03  1.2794e-02  5.7947e-04  0:01:37 1464
   537  5.9024e-04  2.3089e-03  1.1203e-03  1.2565e-02  5.7756e-04  0:06:10 1463
   538  5.8887e-04  2.2867e-03  1.1080e-03  1.2385e-02  5.7634e-04  0:04:56 1462
   539  5.8679e-04  2.2653e-03  1.0967e-03  1.2222e-02  5.7437e-04  0:03:57 1461

  iter  continuity  x-velocity  y-velocity  z-velocity      energy     time/iter
   540  5.8431e-04  2.2451e-03  1.0866e-03  1.2051e-02  5.7199e-04  0:03:09 1460
   541  5.8180e-04  2.2264e-03  1.0774e-03  1.1854e-02  5.6959e-04  0:02:31 1459
   542  5.7968e-04  2.2139e-03  1.0690e-03  1.1613e-02  5.6759e-04  0:02:01 1458
   543  5.7627e-04  2.1982e-03  1.0611e-03  1.1346e-02  5.6428e-04  0:01:37 1457
   544  5.6979e-04  2.1611e-03  1.0535e-03  1.1070e-02  5.5783e-04  0:06:08 1456
   545  5.6482e-04  2.1335e-03  1.0463e-03  1.0760e-02  5.5293e-04  0:04:55 1455
   546  5.5992e-04  2.1098e-03  1.0396e-03  1.0411e-02  5.4811e-04  0:03:55 1454
   547  5.5495e-04  2.0883e-03  1.0332e-03  1.0040e-02  5.4322e-04  0:03:08 1453
   548  5.4978e-04  2.0678e-03  1.0272e-03  9.6574e-03  5.3813e-04  0:02:31 1452
   549  5.4458e-04  2.0484e-03  1.0213e-03  9.2788e-03  5.3300e-04  0:02:00 1451
   550  5.3916e-04  2.0303e-03  1.0156e-03  8.9631e-03  5.2767e-04  0:01:36 1450

  iter  continuity  x-velocity  y-velocity  z-velocity      energy     time/iter
   551  5.3361e-04  2.0151e-03  1.0100e-03  8.6581e-03  5.2220e-04  0:06:07 1449
   552  5.2767e-04  2.0023e-03  1.0045e-03  8.3485e-03  5.1633e-04  0:04:53 1448
   553  5.2165e-04  1.9918e-03  9.9909e-04  8.0512e-03  5.1040e-04  0:03:54 1447
   554  5.1576e-04  1.9832e-03  9.9388e-04  7.7579e-03  5.0460e-04  0:03:07 1446
   555  5.1014e-04  1.9760e-03  9.8846e-04  7.4559e-03  4.9908e-04  0:02:30 1445
   556  5.0424e-04  1.9687e-03  9.8269e-04  7.1694e-03  4.9327e-04  0:02:00 1444
   557  4.9836e-04  1.9610e-03  9.7683e-04  6.8976e-03  4.8747e-04  0:01:36 1443
   558  4.9187e-04  1.9517e-03  9.7104e-04  6.5260e-03  4.8106e-04  0:06:05 1442
   559  4.8558e-04  1.9434e-03  9.6492e-04  6.2690e-03  4.7485e-04  0:04:52 1441
   560  4.7940e-04  1.9359e-03  9.5862e-04  6.0486e-03  4.6875e-04  0:03:53 1440
   561  4.7399e-04  1.9303e-03  9.5256e-04  5.8611e-03  4.6344e-04  0:03:06 1439

  iter  continuity  x-velocity  y-velocity  z-velocity      energy     time/iter
   562  4.6836e-04  1.9206e-03  9.4538e-04  5.7048e-03  4.5790e-04  0:02:29 1438
   563  4.6199e-04  1.9072e-03  9.3845e-04  5.5981e-03  4.5158e-04  0:01:59 1437
   564  4.5614e-04  1.8956e-03  9.3145e-04  5.5053e-03  4.4580e-04  0:01:35 1436
   565  4.5009e-04  1.8841e-03  9.2402e-04  5.4223e-03  4.3982e-04  0:01:16 1435
   566  4.4498e-04  1.8759e-03  9.1650e-04  5.3552e-03  4.3480e-04  0:05:48 1434
   567  4.4015e-04  1.8678e-03  9.0870e-04  5.2932e-03  4.3006e-04  0:04:38 1433
   568  4.3410e-04  1.8569e-03  9.0091e-04  5.2379e-03  4.2408e-04  0:03:42 1432
   569  4.2964e-04  1.8490e-03  8.9370e-04  5.1943e-03  4.1972e-04  0:02:58 1431
   570  4.2642e-04  1.8427e-03  8.8535e-04  5.1568e-03  4.1662e-04  0:02:22 1430
   571  4.2164e-04  1.8325e-03  8.7673e-04  5.1310e-03  4.1189e-04  0:01:54 1429
   572  4.1674e-04  1.8211e-03  8.6850e-04  5.1206e-03  4.0704e-04  0:01:31 1428

  iter  continuity  x-velocity  y-velocity  z-velocity      energy     time/iter
   573  4.1284e-04  1.8109e-03  8.6025e-04  5.1348e-03  4.0319e-04  0:05:58 1427
   574  4.0942e-04  1.8008e-03  8.5188e-04  5.1360e-03  3.9983e-04  0:04:46 1426
   575  4.0656e-04  1.7919e-03  8.4351e-04  5.1721e-03  3.9705e-04  0:03:49 1425
   576  4.0365e-04  1.7835e-03  8.3522e-04  5.2463e-03  3.9420e-04  0:03:03 1424
   577  4.0066e-04  1.7750e-03  8.2701e-04  5.3462e-03  3.9126e-04  0:02:26 1423
   578  3.9784e-04  1.7671e-03  8.1890e-04  5.4665e-03  3.8850e-04  0:01:57 1422
   579  3.9520e-04  1.7590e-03  8.1100e-04  5.6081e-03  3.8592e-04  0:01:33 1421
   580  3.9275e-04  1.7507e-03  8.0336e-04  5.7703e-03  3.8353e-04  0:01:15 1420
   581  3.9047e-04  1.7427e-03  7.9595e-04  5.9549e-03  3.8131e-04  0:05:44 1419
   582  3.8838e-04  1.7345e-03  7.8870e-04  6.1621e-03  3.7927e-04  0:04:35 1418
   583  3.8661e-04  1.7255e-03  7.8173e-04  6.3884e-03  3.7756e-04  0:03:40 1417

  iter  continuity  x-velocity  y-velocity  z-velocity      energy     time/iter
   584  3.8501e-04  1.7171e-03  7.7497e-04  6.6286e-03  3.7602e-04  0:02:56 1416
   585  3.8403e-04  1.7113e-03  7.6867e-04  6.9527e-03  3.7512e-04  0:02:20 1415
   586  3.8310e-04  1.7059e-03  7.6232e-04  7.2941e-03  3.7428e-04  0:01:52 1414
   587  3.8161e-04  1.6994e-03  7.5610e-04  7.6081e-03  3.7285e-04  0:01:30 1413
   588  3.7988e-04  1.6929e-03  7.5012e-04  7.8921e-03  3.7118e-04  0:05:54 1412
   589  3.7811e-04  1.6864e-03  7.4456e-04  8.1654e-03  3.6946e-04  0:04:43 1411
   590  3.7628e-04  1.6812e-03  7.3892e-04  8.4181e-03  3.6769e-04  0:03:46 1410
   591  3.7439e-04  1.6760e-03  7.3358e-04  8.6514e-03  3.6586e-04  0:03:01 1409
   592  3.7250e-04  1.6709e-03  7.2847e-04  8.8570e-03  3.6404e-04  0:02:25 1408
   593  3.7048e-04  1.6662e-03  7.2356e-04  9.0450e-03  3.6208e-04  0:01:56 1407
   594  3.6810e-04  1.6615e-03  7.1879e-04  9.2128e-03  3.5976e-04  0:01:32 1406

  iter  continuity  x-velocity  y-velocity  z-velocity      energy     time/iter
   595  3.6487e-04  1.6557e-03  7.1417e-04  9.3632e-03  3.5658e-04  0:05:55 1405
   596  3.6152e-04  1.6503e-03  7.0980e-04  9.5130e-03  3.5329e-04  0:04:44 1404
   597  3.5836e-04  1.6467e-03  7.0547e-04  9.6240e-03  3.5019e-04  0:03:47 1403
   598  3.5437e-04  1.6422e-03  7.0113e-04  9.6972e-03  3.4625e-04  0:03:01 1402
   599  3.4925e-04  1.6355e-03  6.9682e-04  9.7732e-03  3.4118e-04  0:02:25 1401
   600  3.4498e-04  1.6313e-03  6.9238e-04  9.8107e-03  3.3697e-04  0:01:56 1400
   601  3.4067e-04  1.6279e-03  6.8790e-04  9.8130e-03  3.3273e-04  0:01:33 1399
   602  3.3624e-04  1.6235e-03  6.8340e-04  9.7800e-03  3.2836e-04  0:05:54 1398
   603  3.3310e-04  1.6192e-03  6.7884e-04  9.7503e-03  3.2532e-04  0:04:43 1397
   604  3.2977e-04  1.6161e-03  6.7402e-04  9.6781e-03  3.2209e-04  0:03:46 1396
   605  3.2580e-04  1.6128e-03  6.6908e-04  9.5658e-03  3.1822e-04  0:03:01 1395

  iter  continuity  x-velocity  y-velocity  z-velocity      energy     time/iter
   606  3.2093e-04  1.6093e-03  6.6401e-04  9.4432e-03  3.1344e-04  0:02:24 1394
   607  3.1489e-04  1.6045e-03  6.5881e-04  9.3115e-03  3.0747e-04  0:01:55 1393
   608  3.0787e-04  1.5989e-03  6.5344e-04  9.1751e-03  3.0051e-04  0:01:32 1392
   609  3.0064e-04  1.5940e-03  6.4788e-04  9.0310e-03  2.9334e-04  0:05:52 1391
   610  2.9380e-04  1.5907e-03  6.4206e-04  8.8710e-03  2.8659e-04  0:04:41 1390
   611  2.8741e-04  1.5883e-03  6.3600e-04  8.6868e-03  2.8029e-04  0:03:45 1389
   612  2.8103e-04  1.5863e-03  6.2971e-04  8.4934e-03  2.7402e-04  0:03:00 1388
   613  2.7460e-04  1.5841e-03  6.2303e-04  8.3242e-03  2.6769e-04  0:02:24 1387
   614  2.6826e-04  1.5818e-03  6.1610e-04  8.1900e-03  2.6144e-04  0:01:55 1386
   615  2.6197e-04  1.5793e-03  6.0895e-04  8.0728e-03  2.5526e-04  0:01:32 1385
   616  2.5579e-04  1.5767e-03  6.0155e-04  7.9603e-03  2.4919e-04  0:01:13 1384

  iter  continuity  x-velocity  y-velocity  z-velocity      energy     time/iter
   617  2.4977e-04  1.5741e-03  5.9385e-04  7.8595e-03  2.4330e-04  0:05:35 1383
   618  2.4392e-04  1.5714e-03  5.8581e-04  7.7289e-03  2.3757e-04  0:04:28 1382
   619  2.3824e-04  1.5685e-03  5.7754e-04  7.4926e-03  2.3201e-04  0:03:34 1381
   620  2.3270e-04  1.5654e-03  5.6900e-04  7.3439e-03  2.2660e-04  0:02:51 1380
   621  2.2720e-04  1.5624e-03  5.6011e-04  7.2677e-03  2.2123e-04  0:02:17 1379
   622  2.2181e-04  1.5594e-03  5.5106e-04  7.1895e-03  2.1596e-04  0:01:49 1378
   623  2.1608e-04  1.5556e-03  5.4179e-04  7.0917e-03  2.1036e-04  0:01:28 1377
   624  2.0962e-04  1.5510e-03  5.3225e-04  7.1095e-03  2.0400e-04  0:05:45 1376
   625  2.0425e-04  1.5474e-03  5.2241e-04  7.0865e-03  1.9875e-04  0:04:36 1375
   626  1.9933e-04  1.5441e-03  5.1249e-04  7.0187e-03  1.9395e-04  0:03:41 1374
   627  1.8987e-04  1.5350e-03  5.0243e-04  6.9286e-03  1.8451e-04  0:02:56 1373

  iter  continuity  x-velocity  y-velocity  z-velocity      energy     time/iter
   628  1.8259e-04  1.5268e-03  4.9218e-04  6.9399e-03  1.7730e-04  0:02:21 1372
   629  1.7744e-04  1.5206e-03  4.8179e-04  6.8603e-03  1.7226e-04  0:01:53 1371
   630  1.7293e-04  1.5155e-03  4.7143e-04  6.7189e-03  1.6787e-04  0:01:30 1370
   631  1.6880e-04  1.5109e-03  4.6111e-04  6.5278e-03  1.6386e-04  0:05:46 1369
   632  1.6592e-04  1.5073e-03  4.5083e-04  6.3141e-03  1.6112e-04  0:04:36 1368
   633  1.6388e-04  1.5039e-03  4.4047e-04  6.3420e-03  1.5925e-04  0:03:41 1367
   634  1.6070e-04  1.4985e-03  4.3019e-04  6.3390e-03  1.5619e-04  0:02:57 1366
   635  1.5703e-04  1.4917e-03  4.1998e-04  6.3731e-03  1.5262e-04  0:02:21 1365
   636  1.5332e-04  1.4840e-03  4.0985e-04  6.5526e-03  1.4900e-04  0:01:53 1364
   637  1.4964e-04  1.4755e-03  3.9986e-04  7.5059e-03  1.4541e-04  0:01:30 1363
   638  1.4610e-04  1.4666e-03  3.9000e-04  8.3327e-03  1.4196e-04  0:01:12 1362

  iter  continuity  x-velocity  y-velocity  z-velocity      energy     time/iter
   639  1.4269e-04  1.4574e-03  3.8029e-04  8.9660e-03  1.3864e-04  0:05:30 1361
   640  1.3945e-04  1.4479e-03  3.7077e-04  9.4357e-03  1.3549e-04  0:04:24 1360
   641  1.3638e-04  1.4383e-03  3.6143e-04  9.7163e-03  1.3251e-04  0:03:31 1359
   642  1.3351e-04  1.4286e-03  3.5228e-04  9.9911e-03  1.2972e-04  0:02:49 1358
   643  1.3084e-04  1.4189e-03  3.4335e-04  1.0218e-02  1.2713e-04  0:02:15 1357
   644  1.2836e-04  1.4092e-03  3.3466e-04  1.0294e-02  1.2474e-04  0:01:48 1356
   645  1.2605e-04  1.3996e-03  3.2621e-04  1.0442e-02  1.2250e-04  0:01:26 1355
   646  1.2387e-04  1.3900e-03  3.1803e-04  1.0305e-02  1.2041e-04  0:05:40 1354
   647  1.2181e-04  1.3804e-03  3.1012e-04  1.0023e-02  1.1843e-04  0:04:31 1353
   648  1.1987e-04  1.3708e-03  3.0248e-04  9.7013e-03  1.1656e-04  0:03:37 1352
   649  1.1803e-04  1.3613e-03  2.9512e-04  9.3092e-03  1.1480e-04  0:02:54 1351

  iter  continuity  x-velocity  y-velocity  z-velocity      energy     time/iter
   650  1.1632e-04  1.3521e-03  2.8805e-04  8.9155e-03  1.1316e-04  0:02:19 1350
   651  1.1470e-04  1.3430e-03  2.8129e-04  8.5602e-03  1.1162e-04  0:01:51 1349
   652  1.1323e-04  1.3341e-03  2.7479e-04  8.2843e-03  1.1022e-04  0:01:29 1348
   653  1.1167e-04  1.3253e-03  2.6853e-04  8.1626e-03  1.0872e-04  0:05:40 1347
   654  1.1035e-04  1.3170e-03  2.6253e-04  8.6908e-03  1.0747e-04  0:04:32 1346
   655  1.0946e-04  1.3091e-03  2.5681e-04  9.0968e-03  1.0667e-04  0:03:37 1345
   656  1.0908e-04  1.3013e-03  2.5137e-04  9.3967e-03  1.0636e-04  0:02:54 1344
   657  1.0927e-04  1.2943e-03  2.4622e-04  9.5848e-03  1.0664e-04  0:02:19 1343
   658  1.1063e-04  1.2882e-03  2.4120e-04  9.7472e-03  1.0812e-04  0:01:51 1342
   659  1.1459e-04  1.2836e-03  2.3648e-04  1.0017e-02  1.1223e-04  0:01:29 1341
   660  1.1805e-04  1.2798e-03  2.3199e-04  1.0393e-02  1.1583e-04  0:05:39 1340

  iter  continuity  x-velocity  y-velocity  z-velocity      energy     time/iter
   661  1.1516e-04  1.2742e-03  2.2781e-04  1.0825e-02  1.1296e-04  0:04:31 1339
   662  9.9362e-05  1.2630e-03  2.2473e-04  1.0469e-02  9.6943e-05  0:03:37 1338
   663  9.6477e-05  1.2559e-03  2.2062e-04  1.1685e-02  9.4094e-05  0:02:53 1337
   664  9.6128e-05  1.2498e-03  2.1653e-04  1.1655e-02  9.3823e-05  0:02:18 1336
   665  9.6109e-05  1.2440e-03  2.1268e-04  1.1335e-02  9.3878e-05  0:01:51 1335
   666  9.5985e-05  1.2383e-03  2.0907e-04  1.1122e-02  9.3816e-05  0:01:28 1334
   667  9.5664e-05  1.2326e-03  2.0579e-04  1.0899e-02  9.3549e-05  0:05:37 1333
   668  9.5270e-05  1.2272e-03  2.0285e-04  1.0689e-02  9.3209e-05  0:04:30 1332
   669  9.5203e-05  1.2211e-03  1.9980e-04  1.0493e-02  9.3196e-05  0:03:36 1331
   670  9.6420e-05  1.2154e-03  1.9666e-04  1.0133e-02  9.4491e-05  0:02:52 1330
   671  9.7194e-05  1.2097e-03  1.9446e-04  1.0009e-02  9.5339e-05  0:02:18 1329

  iter  continuity  x-velocity  y-velocity  z-velocity      energy     time/iter
   672  9.7643e-05  1.2035e-03  1.9201e-04  9.9990e-03  9.5853e-05  0:01:50 1328
   673  9.6987e-05  1.1959e-03  1.8877e-04  1.0163e-02  9.5235e-05  0:01:28 1327
   674  9.5387e-05  1.1870e-03  1.8571e-04  1.0467e-02  9.3648e-05  0:05:36 1326
   675  9.3549e-05  1.1774e-03  1.8307e-04  1.0860e-02  9.1817e-05  0:04:28 1325
   676  9.1797e-05  1.1681e-03  1.8098e-04  1.1300e-02  9.0079e-05  0:03:34 1324
   677  9.0036e-05  1.1589e-03  1.7898e-04  1.1732e-02  8.8332e-05  0:02:51 1323
   678  8.8229e-05  1.1499e-03  1.7689e-04  1.2144e-02  8.6535e-05  0:02:17 1322
   679  8.6434e-05  1.1411e-03  1.7474e-04  1.2516e-02  8.4751e-05  0:01:50 1321
   680  8.4444e-05  1.1331e-03  1.7357e-04  1.2752e-02  8.2776e-05  0:01:28 1320
   681  8.2941e-05  1.1255e-03  1.7154e-04  1.2781e-02  8.1296e-05  0:01:10 1319
   682  8.1549e-05  1.1178e-03  1.6911e-04  1.2572e-02  7.9922e-05  0:05:20 1318

  iter  continuity  x-velocity  y-velocity  z-velocity      energy     time/iter
   683  8.0115e-05  1.1099e-03  1.6679e-04  1.2162e-02  7.8498e-05  0:04:15 1317
   684  7.8552e-05  1.1017e-03  1.6463e-04  1.1586e-02  7.6940e-05  0:03:24 1316
   685  7.7158e-05  1.0938e-03  1.6261e-04  1.1840e-02  7.5550e-05  0:02:43 1315
   686  7.5881e-05  1.0860e-03  1.6068e-04  1.1337e-02  7.4279e-05  0:02:10 1314
   687  7.4683e-05  1.0785e-03  1.5882e-04  1.0653e-02  7.3087e-05  0:06:07 1313
   688  7.3564e-05  1.0711e-03  1.5701e-04  1.0038e-02  7.1976e-05  0:04:53 1312
   689  7.2495e-05  1.0638e-03  1.5524e-04  9.7778e-03  7.0914e-05  0:03:54 1311
   690  7.1479e-05  1.0568e-03  1.5349e-04  1.0135e-02  6.9907e-05  0:03:07 1310
   691  7.0516e-05  1.0499e-03  1.5177e-04  1.1076e-02  6.8954e-05  0:02:30 1309
   692  6.9603e-05  1.0431e-03  1.5007e-04  1.2392e-02  6.8052e-05  0:02:00 1308
   693  6.8733e-05  1.0366e-03  1.4839e-04  1.3890e-02  6.7193e-05  0:01:36 1307

  iter  continuity  x-velocity  y-velocity  z-velocity      energy     time/iter
   694  6.7899e-05  1.0302e-03  1.4674e-04  1.5352e-02  6.6371e-05  0:05:38 1306
   695  6.7097e-05  1.0239e-03  1.4511e-04  1.6529e-02  6.5581e-05  0:04:30 1305
   696  6.6141e-05  1.0176e-03  1.4357e-04  1.7354e-02  6.4632e-05  0:03:36 1304
   697  6.5204e-05  1.0115e-03  1.4196e-04  1.8121e-02  6.3703e-05  0:02:53 1303
   698  6.4344e-05  1.0056e-03  1.4032e-04  1.8714e-02  6.2852e-05  0:02:18 1302
   699  6.3621e-05  9.9981e-04  1.3873e-04  2.0554e-02  6.2143e-05  0:01:50 1301
   700  6.2965e-05  9.9417e-04  1.3717e-04  2.2016e-02  6.1501e-05  0:01:28 1300
   701  6.2348e-05  9.8863e-04  1.3565e-04  1.9115e-02  6.0900e-05  0:05:30 1299
   702  6.1753e-05  9.8318e-04  1.3415e-04  1.8157e-02  6.0320e-05  0:04:24 1298
   703  6.1184e-05  9.7782e-04  1.3267e-04  1.8347e-02  5.9767e-05  0:03:31 1297
   704  6.0638e-05  9.7255e-04  1.3119e-04  1.8391e-02  5.9238e-05  0:02:49 1296

  iter  continuity  x-velocity  y-velocity  z-velocity      energy     time/iter
   705  6.0108e-05  9.6737e-04  1.2975e-04  1.8529e-02  5.8724e-05  0:02:15 1295
   706  5.9611e-05  9.6225e-04  1.2831e-04  1.8939e-02  5.8245e-05  0:01:48 1294
   707  5.9168e-05  9.5730e-04  1.2689e-04  2.0716e-02  5.7821e-05  0:01:26 1293
   708  5.8662e-05  9.5243e-04  1.2547e-04  2.1243e-02  5.7332e-05  0:01:09 1292
   709  5.8127e-05  9.4766e-04  1.2407e-04  2.0745e-02  5.6814e-05  0:05:13 1291
   710  5.7426e-05  9.4303e-04  1.2269e-04  2.0114e-02  5.6124e-05  0:04:10 1290
   711  5.6849e-05  9.3856e-04  1.2137e-04  1.9645e-02  5.5563e-05  0:03:20 1289
   712  5.6331e-05  9.3416e-04  1.2005e-04  1.9193e-02  5.5061e-05  0:02:40 1288
   713  5.5777e-05  9.2976e-04  1.1876e-04  1.8577e-02  5.4523e-05  0:02:08 1287
   714  5.5211e-05  9.2543e-04  1.1748e-04  1.7884e-02  5.3972e-05  0:01:42 1286
   715  5.4638e-05  9.2118e-04  1.1623e-04  1.7170e-02  5.3413e-05  0:01:22 1285

  iter  continuity  x-velocity  y-velocity  z-velocity      energy     time/iter
   716  5.4052e-05  9.1700e-04  1.1501e-04  1.6505e-02  5.2837e-05  0:05:22 1284
   717  5.3459e-05  9.1291e-04  1.1381e-04  1.6449e-02  5.2256e-05  0:04:18 1283
   718  5.2934e-05  9.0897e-04  1.1266e-04  1.6106e-02  5.1746e-05  0:03:26 1282
   719  5.2398e-05  9.0512e-04  1.1153e-04  1.5611e-02  5.1224e-05  0:02:45 1281
   720  5.2233e-05  9.0164e-04  1.1042e-04  1.5169e-02  5.1083e-05  0:02:12 1280
   721  5.1836e-05  8.9810e-04  1.0933e-04  1.4701e-02  5.0704e-05  0:01:45 1279
   722  5.1265e-05  8.9448e-04  1.0827e-04  1.4197e-02  5.0147e-05  0:01:24 1278
   723  5.0635e-05  8.9086e-04  1.0725e-04  1.3665e-02  4.9531e-05  0:05:23 1277
   724  4.9996e-05  8.8725e-04  1.0625e-04  1.3148e-02  4.8904e-05  0:04:18 1276
   725  4.9359e-05  8.8370e-04  1.0528e-04  1.2667e-02  4.8280e-05  0:03:26 1275
   726  4.8727e-05  8.8020e-04  1.0432e-04  1.2213e-02  4.7662e-05  0:02:45 1274

  iter  continuity  x-velocity  y-velocity  z-velocity      energy     time/iter
   727  4.8100e-05  8.7676e-04  1.0339e-04  1.1818e-02  4.7048e-05  0:02:12 1273
   728  4.7483e-05  8.7340e-04  1.0247e-04  1.1657e-02  4.6445e-05  0:01:45 1272
   729  4.6888e-05  8.7012e-04  1.0157e-04  1.3997e-02  4.5864e-05  0:01:24 1271
   730  4.6295e-05  8.6690e-04  1.0070e-04  1.4448e-02  4.5285e-05  0:05:21 1270
   731  4.5668e-05  8.6368e-04  9.9833e-05  1.4351e-02  4.4670e-05  0:04:17 1269
   732  4.5055e-05  8.6055e-04  9.8987e-05  1.4303e-02  4.4071e-05  0:03:25 1268
   733  4.4442e-05  8.5750e-04  9.8158e-05  1.4220e-02  4.3471e-05  0:02:44 1267
   734  4.3839e-05  8.5452e-04  9.7296e-05  1.4160e-02  4.2880e-05  0:02:11 1266
   735  4.3290e-05  8.5161e-04  9.6461e-05  1.4188e-02  4.2345e-05  0:05:58 1265
   736  4.2745e-05  8.4871e-04  9.5648e-05  1.4281e-02  4.1815e-05  0:04:46 1264
   737  4.2226e-05  8.4574e-04  9.4848e-05  1.4473e-02  4.1311e-05  0:03:49 1263

  iter  continuity  x-velocity  y-velocity  z-velocity      energy     time/iter
   738  4.1726e-05  8.4289e-04  9.4050e-05  1.4713e-02  4.0828e-05  0:03:03 1262
   739  4.1229e-05  8.4014e-04  9.3249e-05  1.5085e-02  4.0346e-05  0:02:26 1261
   740  4.0743e-05  8.3745e-04  9.2445e-05  1.5783e-02  3.9875e-05  0:01:57 1260
   741  4.0280e-05  8.3481e-04  9.1647e-05  1.6465e-02  3.9427e-05  0:01:33 1259
   742  3.9837e-05  8.3221e-04  9.0844e-05  1.6878e-02  3.8999e-05  0:05:26 1258
   743  3.9489e-05  8.2961e-04  9.0027e-05  1.7221e-02  3.8668e-05  0:04:21 1257
   744  3.9149e-05  8.2691e-04  8.9206e-05  1.7799e-02  3.8345e-05  0:03:28 1256
   745  3.8353e-05  8.2396e-04  8.8353e-05  1.8626e-02  3.7556e-05  0:02:47 1255
   746  3.7610e-05  8.2113e-04  8.7492e-05  2.9504e-02  3.6820e-05  0:02:13 1254
   747  3.6950e-05  8.1840e-04  8.6653e-05  3.8826e-02  3.6168e-05  0:01:46 1253
   748  3.6263e-05  8.1571e-04  8.5816e-05  4.3258e-02  3.5487e-05  0:01:25 1252

  iter  continuity  x-velocity  y-velocity  z-velocity      energy     time/iter
   749  3.5573e-05  8.1309e-04  8.4991e-05  4.4555e-02  3.4802e-05  0:01:08 1251
   750  3.4915e-05  8.1056e-04  8.4143e-05  4.5078e-02  3.4149e-05  0:05:04 1250
   751  3.4296e-05  8.0811e-04  8.3283e-05  4.3759e-02  3.3536e-05  0:04:03 1249
   752  3.3374e-05  8.0556e-04  8.2370e-05  4.1772e-02  3.2612e-05  0:03:14 1248
   753  3.2748e-05  8.0325e-04  8.1475e-05  3.9232e-02  3.1989e-05  0:02:35 1247
   754  3.2271e-05  8.0113e-04  8.0604e-05  3.6819e-02  3.1519e-05  0:02:04 1246
   755  3.1884e-05  7.9915e-04  7.9738e-05  3.4323e-02  3.1141e-05  0:01:39 1245
   756  3.1593e-05  7.9730e-04  7.8876e-05  3.2039e-02  3.0859e-05  0:05:28 1244
   757  3.1409e-05  7.9556e-04  7.8025e-05  3.0120e-02  3.0687e-05  0:04:22 1243
   758  3.1349e-05  7.9394e-04  7.7202e-05  2.8656e-02  3.0640e-05  0:03:30 1242
   759  3.1423e-05  7.9246e-04  7.6380e-05  2.7907e-02  3.0729e-05  0:02:48 1241

  iter  continuity  x-velocity  y-velocity  z-velocity      energy     time/iter
   760  3.1649e-05  7.9111e-04  7.5563e-05  2.7842e-02  3.0973e-05  0:02:14 1240
   761  3.1993e-05  7.8992e-04  7.4783e-05  2.8879e-02  3.1335e-05  0:01:47 1239
   762  3.2470e-05  7.8888e-04  7.4037e-05  2.8359e-02  3.1830e-05  0:01:26 1238
   763  3.3095e-05  7.8803e-04  7.3329e-05  2.9149e-02  3.2477e-05  0:05:16 1237
   764  3.3880e-05  7.8743e-04  7.2662e-05  3.1257e-02  3.3283e-05  0:04:12 1236
   765  3.4856e-05  7.8705e-04  7.2041e-05  3.3970e-02  3.4284e-05  0:03:22 1235
   766  3.6091e-05  7.8705e-04  7.1462e-05  5.9243e-02  3.5544e-05  0:02:41 1234
   767  3.7339e-05  7.8734e-04  7.0956e-05  7.1005e-02  3.6815e-05  0:02:09 1233
   768  3.8699e-05  7.8804e-04  7.0522e-05  6.3459e-02  3.8196e-05  0:01:43 1232
   769  4.0079e-05  7.8923e-04  7.0152e-05  5.5537e-02  3.9597e-05  0:01:22 1231
   770  4.1524e-05  7.9098e-04  6.9831e-05  4.9238e-02  4.1061e-05  0:05:12 1230

  iter  continuity  x-velocity  y-velocity  z-velocity      energy     time/iter
   771  4.3019e-05  7.9328e-04  6.9583e-05  4.5069e-02  4.2574e-05  0:04:09 1229
   772  4.4497e-05  7.9613e-04  6.9395e-05  4.1783e-02  4.4069e-05  0:03:19 1228
   773  4.5898e-05  7.9948e-04  6.9264e-05  3.9509e-02  4.5485e-05  0:02:39 1227
   774  4.7139e-05  8.0328e-04  6.9192e-05  3.8316e-02  4.6739e-05  0:02:07 1226
   775  4.8117e-05  8.0729e-04  6.9163e-05  3.8516e-02  4.7729e-05  0:01:42 1225
   776  4.8807e-05  8.1122e-04  6.9174e-05  4.1119e-02  4.8428e-05  0:01:21 1224
   777  4.9142e-05  8.1494e-04  6.9248e-05  4.5624e-02  4.8770e-05  0:05:10 1223
   778  4.9111e-05  8.1813e-04  6.9378e-05  5.0410e-02  4.8743e-05  0:04:08 1222
   779  4.8786e-05  8.2045e-04  6.9513e-05  5.5479e-02  4.8418e-05  0:03:18 1221
   780  4.8315e-05  8.2169e-04  6.9642e-05  6.1497e-02  4.7946e-05  0:02:38 1220
   781  4.7617e-05  8.2214e-04  6.9722e-05  6.4172e-02  4.7243e-05  0:02:06 1219

  iter  continuity  x-velocity  y-velocity  z-velocity      energy     time/iter
   782  4.6872e-05  8.2187e-04  6.9774e-05  7.3206e-02  4.6491e-05  0:01:41 1218
   783  4.3849e-05  8.1801e-04  6.9495e-05  8.8436e-02  4.3443e-05  0:01:21 1217
   784  4.2272e-05  8.1213e-04  6.8354e-05  1.0502e-01  4.1847e-05  0:05:08 1216
   785  4.2680e-05  8.0753e-04  6.7574e-05  1.0857e-01  4.2255e-05  0:04:06 1215
   786  4.2911e-05  8.0299e-04  6.7121e-05  1.0935e-01  4.2485e-05  0:03:17 1214
   787  4.2656e-05  7.9856e-04  6.6802e-05  1.1025e-01  4.2226e-05  0:02:37 1213
   788  4.1782e-05  7.9419e-04  6.6551e-05  1.0840e-01  4.1343e-05  0:02:06 1212
   789  4.0649e-05  7.8986e-04  6.6331e-05  1.0624e-01  4.0199e-05  0:01:40 1211
   790  3.9507e-05  7.8561e-04  6.6130e-05  1.0490e-01  3.9045e-05  0:01:20 1210
   791  3.8491e-05  7.8147e-04  6.5957e-05  1.0459e-01  3.8017e-05  0:01:04 1209
   792  3.7610e-05  7.7748e-04  6.5790e-05  1.0586e-01  3.7124e-05  0:04:53 1208

  iter  continuity  x-velocity  y-velocity  z-velocity      energy     time/iter
   793  3.6853e-05  7.7363e-04  6.5663e-05  1.0712e-01  3.6355e-05  0:03:54 1207
   794  3.5949e-05  7.6979e-04  6.5604e-05  1.0822e-01  3.5437e-05  0:03:07 1206
   795  3.4930e-05  7.6596e-04  6.5622e-05  8.2015e-02  3.4403e-05  0:02:30 1205
   796  3.4437e-05  7.6245e-04  6.5594e-05  7.7375e-02  3.3901e-05  0:02:00 1204
   797  3.4100e-05  7.5912e-04  6.5601e-05  7.5454e-02  3.3555e-05  0:01:36 1203
   798  3.3853e-05  7.5597e-04  6.5657e-05  7.4151e-02  3.3299e-05  0:01:16 1202
   799  3.3686e-05  7.5300e-04  6.5752e-05  7.2729e-02  3.3124e-05  0:05:01 1201
   800  3.3591e-05  7.5019e-04  6.5887e-05  7.0688e-02  3.3022e-05  0:04:01 1200
   801  3.3555e-05  7.4753e-04  6.6053e-05  6.7876e-02  3.2980e-05  0:03:12 1199
   802  3.3574e-05  7.4501e-04  6.6233e-05  6.4719e-02  3.2992e-05  0:02:34 1198
   803  3.3645e-05  7.4264e-04  6.6442e-05  6.1441e-02  3.3057e-05  0:02:03 1197

  iter  continuity  x-velocity  y-velocity  z-velocity      energy     time/iter
   804  3.3757e-05  7.4040e-04  6.6687e-05  5.8327e-02  3.3163e-05  0:01:38 1196
   805  3.3905e-05  7.3828e-04  6.6960e-05  5.5416e-02  3.3305e-05  0:01:19 1195
   806  3.4085e-05  7.3628e-04  6.7251e-05  5.2735e-02  3.3480e-05  0:05:02 1194
   807  3.4291e-05  7.3439e-04  6.7577e-05  5.0488e-02  3.3680e-05  0:04:01 1193
   808  3.4510e-05  7.3259e-04  6.7916e-05  4.8572e-02  3.3894e-05  0:03:13 1192
   809  3.4727e-05  7.3116e-04  6.8183e-05  4.6745e-02  3.4104e-05  0:02:34 1191
[...]
  1791  5.2223e-07  4.1081e-06  9.0029e-07  1.0941e-01  5.1416e-07  0:00:46  209
  1792  5.2007e-07  4.0969e-06  8.9586e-07  1.0975e-01  5.1205e-07  0:00:36  208
  1793  5.1794e-07  4.0857e-06  8.9147e-07  1.1018e-01  5.0997e-07  0:00:29  207

  iter  continuity  x-velocity  y-velocity  z-velocity      energy     time/iter
  1794  5.1584e-07  4.0744e-06  8.8713e-07  1.1063e-01  5.0792e-07  0:00:23  206
  1795  5.1378e-07  4.0631e-06  8.8284e-07  1.1109e-01  5.0590e-07  0:00:18  205
  1796  5.1175e-07  4.0517e-06  8.7860e-07  1.1152e-01  5.0392e-07  0:00:15  204
  1797  5.0970e-07  4.0228e-06  8.7439e-07  1.1195e-01  5.0191e-07  0:00:12  203
  1798  5.1183e-07  4.0210e-06  8.7016e-07  1.1240e-01  5.0415e-07  0:00:09  202
  1799  5.1165e-07  4.0226e-06  8.6748e-07  1.1290e-01  5.0403e-07  0:00:07  201
  1800  5.1029e-07  4.0231e-06  8.6527e-07  1.1345e-01  5.0272e-07  0:00:06  200
  1801  5.0895e-07  4.0224e-06  8.6295e-07  1.1405e-01  5.0143e-07  0:00:05  199
  1802  5.0787e-07  4.0207e-06  8.6052e-07  1.1477e-01  5.0039e-07  0:00:43  198
  1803  5.0689e-07  4.0178e-06  8.5802e-07  1.1555e-01  4.9946e-07  0:00:34  197
  1804  5.0582e-07  4.0136e-06  8.5539e-07  1.1641e-01  4.9844e-07  0:00:27  196

  iter  continuity  x-velocity  y-velocity  z-velocity      energy     time/iter
  1805  5.0458e-07  4.0079e-06  8.5260e-07  1.1731e-01  4.9724e-07  0:00:22  195
  1806  5.0315e-07  4.0009e-06  8.4966e-07  1.1846e-01  4.9586e-07  0:00:17  194
  1807  5.0159e-07  3.9928e-06  8.4660e-07  1.1990e-01  4.9433e-07  0:00:14  193
  1808  4.9994e-07  3.9837e-06  8.4346e-07  1.2158e-01  4.9271e-07  0:00:11  192
  1809  4.9824e-07  3.9739e-06  8.4029e-07  1.2240e-01  4.9105e-07  0:00:09  191
  1810  4.9651e-07  3.9636e-06  8.3710e-07  1.2337e-01  4.8936e-07  0:00:07  190
  1811  4.9478e-07  3.9530e-06  8.3392e-07  1.2408e-01  4.8766e-07  0:00:06  189
  1812  4.9303e-07  3.9420e-06  8.3075e-07  1.2417e-01  4.8594e-07  0:00:04  188
  1813  4.9127e-07  3.9309e-06  8.2760e-07  1.2419e-01  4.8421e-07  0:00:41  187
  1814  4.8951e-07  3.9197e-06  8.2445e-07  1.2383e-01  4.8247e-07  0:00:33  186
  1815  4.8774e-07  3.9084e-06  8.2132e-07  1.2347e-01  4.8073e-07  0:00:26  185

  iter  continuity  x-velocity  y-velocity  z-velocity      energy     time/iter
  1816  4.8597e-07  3.8970e-06  8.1819e-07  1.2332e-01  4.7899e-07  0:00:21  184
  1817  4.8421e-07  3.8856e-06  8.1507e-07  1.2326e-01  4.7725e-07  0:00:16  183
  1818  4.8244e-07  3.8742e-06  8.1197e-07  1.2322e-01  4.7551e-07  0:00:13  182
  1819  4.8069e-07  3.8628e-06  8.0889e-07  1.2350e-01  4.7377e-07  0:00:10  181
  1820  4.7895e-07  3.8514e-06  8.0582e-07  1.2395e-01  4.7206e-07  0:00:08  180
  1821  4.7723e-07  3.8400e-06  8.0279e-07  1.2469e-01  4.7036e-07  0:00:07  179
  1822  4.7552e-07  3.8285e-06  7.9979e-07  1.2558e-01  4.6867e-07  0:00:05  178
  1823  4.7382e-07  3.8170e-06  7.9682e-07  1.2608e-01  4.6700e-07  0:00:04  177
  1824  4.7214e-07  3.8054e-06  7.9389e-07  1.2660e-01  4.6533e-07  0:00:39  176
  1825  4.7046e-07  3.7938e-06  7.9100e-07  1.2711e-01  4.6367e-07  0:00:31  175
  1826  4.6879e-07  3.7820e-06  7.8816e-07  1.2774e-01  4.6203e-07  0:00:24  174

  iter  continuity  x-velocity  y-velocity  z-velocity      energy     time/iter
  1827  4.6713e-07  3.7701e-06  7.8536e-07  1.2891e-01  4.6038e-07  0:00:19  173
  1828  4.6547e-07  3.7581e-06  7.8261e-07  1.3146e-01  4.5875e-07  0:00:15  172
  1829  4.6382e-07  3.7460e-06  7.7991e-07  1.3171e-01  4.5711e-07  0:00:12  171
  1830  4.6216e-07  3.7337e-06  7.7725e-07  1.3081e-01  4.5548e-07  0:00:10  170
  1831  4.6051e-07  3.7213e-06  7.7463e-07  1.3032e-01  4.5385e-07  0:00:08  169
  1832  4.5885e-07  3.7087e-06  7.7205e-07  1.3010e-01  4.5221e-07  0:00:06  168
  1833  4.5719e-07  3.6960e-06  7.6951e-07  1.2977e-01  4.5057e-07  0:00:05  167
  1834  4.5551e-07  3.6831e-06  7.6700e-07  1.2949e-01  4.4891e-07  0:00:04  166
  1835  4.5382e-07  3.6700e-06  7.6452e-07  1.2931e-01  4.4725e-07  0:00:36  165
  1836  4.5211e-07  3.6568e-06  7.6205e-07  1.2923e-01  4.4556e-07  0:00:29  164
  1837  4.5038e-07  3.6433e-06  7.5960e-07  1.2924e-01  4.4384e-07  0:00:23  163

  iter  continuity  x-velocity  y-velocity  z-velocity      energy     time/iter
  1838  4.4862e-07  3.6296e-06  7.5716e-07  1.2935e-01  4.4210e-07  0:00:18  162
  1839  4.4684e-07  3.6157e-06  7.5472e-07  1.2951e-01  4.4034e-07  0:00:14  161
  1840  4.4504e-07  3.6015e-06  7.5228e-07  1.2968e-01  4.3856e-07  0:00:11  160
  1841  4.4321e-07  3.5872e-06  7.4983e-07  1.2983e-01  4.3675e-07  0:00:09  159
  1842  4.4136e-07  3.5726e-06  7.4738e-07  1.2979e-01  4.3492e-07  0:00:07  158
  1843  4.3948e-07  3.5577e-06  7.4492e-07  1.2973e-01  4.3306e-07  0:00:06  157
  1844  4.3758e-07  3.5426e-06  7.4246e-07  1.2961e-01  4.3117e-07  0:00:05  156
  1845  4.3565e-07  3.5272e-06  7.3998e-07  1.2947e-01  4.2926e-07  0:00:04  155
  1846  4.3371e-07  3.5115e-06  7.3748e-07  1.2927e-01  4.2733e-07  0:00:03  154
  1847  4.3175e-07  3.4955e-06  7.3498e-07  1.2906e-01  4.2539e-07  0:00:33  153
  1848  4.2977e-07  3.4793e-06  7.3245e-07  1.2884e-01  4.2342e-07  0:00:26  152

  iter  continuity  x-velocity  y-velocity  z-velocity      energy     time/iter
  1849  4.2778e-07  3.4628e-06  7.2992e-07  1.2860e-01  4.2145e-07  0:00:21  151
  1850  4.2578e-07  3.4460e-06  7.2737e-07  1.2834e-01  4.1946e-07  0:00:17  150
  1851  4.2377e-07  3.4289e-06  7.2481e-07  1.2810e-01  4.1746e-07  0:00:13  149
  1852  4.2175e-07  3.4115e-06  7.2223e-07  1.2782e-01  4.1546e-07  0:00:10  148
  1853  4.1973e-07  3.3938e-06  7.1964e-07  1.2758e-01  4.1345e-07  0:00:08  147
  1854  4.1771e-07  3.3759e-06  7.1703e-07  1.2741e-01  4.1144e-07  0:00:07  146
  1855  4.1568e-07  3.3577e-06  7.1442e-07  1.2727e-01  4.0942e-07  0:00:05  145
  1856  4.1366e-07  3.3392e-06  7.1179e-07  1.2698e-01  4.0741e-07  0:00:04  144
  1857  4.1164e-07  3.3205e-06  7.0915e-07  1.2680e-01  4.0540e-07  0:00:03  143
  1858  4.0962e-07  3.3015e-06  7.0650e-07  1.2681e-01  4.0339e-07  0:00:03  142
  1859  4.0761e-07  3.2822e-06  7.0384e-07  1.2729e-01  4.0139e-07  0:00:30  141

  iter  continuity  x-velocity  y-velocity  z-velocity      energy     time/iter
  1860  4.0560e-07  3.2627e-06  7.0117e-07  1.2845e-01  3.9939e-07  0:00:24  140
  1861  4.0359e-07  3.2430e-06  6.9849e-07  1.3034e-01  3.9740e-07  0:00:19  139
  1862  4.0159e-07  3.2230e-06  6.9581e-07  1.2803e-01  3.9541e-07  0:00:15  138
  1863  3.9960e-07  3.2029e-06  6.9312e-07  1.2498e-01  3.9342e-07  0:00:12  137
  1864  3.9762e-07  3.1825e-06  6.9043e-07  1.2287e-01  3.9145e-07  0:00:10  136
  1865  3.9564e-07  3.1618e-06  6.8774e-07  1.2041e-01  3.8948e-07  0:00:08  135
  1866  3.9367e-07  3.1410e-06  6.8504e-07  1.1857e-01  3.8752e-07  0:00:06  134
  1867  3.9171e-07  3.1200e-06  6.8235e-07  1.1704e-01  3.8556e-07  0:00:05  133
  1868  3.8974e-07  3.0988e-06  6.7966e-07  1.1571e-01  3.8361e-07  0:00:04  132
  1869  3.8779e-07  3.0775e-06  6.7697e-07  1.1456e-01  3.8166e-07  0:00:03  131
  1870  3.8584e-07  3.0560e-06  6.7430e-07  1.1327e-01  3.7972e-07  0:00:02  130

  iter  continuity  x-velocity  y-velocity  z-velocity      energy     time/iter
  1871  3.8389e-07  3.0343e-06  6.7163e-07  1.1199e-01  3.7777e-07  0:00:02  129
  1872  3.8194e-07  3.0125e-06  6.6898e-07  1.1081e-01  3.7583e-07  0:00:27  128
  1873  3.8000e-07  2.9905e-06  6.6634e-07  1.0966e-01  3.7390e-07  0:00:22  127
  1874  3.7805e-07  2.9684e-06  6.6372e-07  1.0856e-01  3.7196e-07  0:00:17  126
  1875  3.7611e-07  2.9462e-06  6.6111e-07  1.0752e-01  3.7002e-07  0:00:14  125
  1876  3.7417e-07  2.9239e-06  6.5853e-07  1.0650e-01  3.6808e-07  0:00:11  124
  1877  3.7222e-07  2.9015e-06  6.5596e-07  1.0551e-01  3.6614e-07  0:00:09  123
  1878  3.7028e-07  2.8791e-06  6.5341e-07  1.0454e-01  3.6420e-07  0:00:07  122
  1879  3.6834e-07  2.8566e-06  6.5089e-07  1.0361e-01  3.6226e-07  0:00:05  121
  1880  3.6639e-07  2.8340e-06  6.4838e-07  1.0271e-01  3.6032e-07  0:00:04  120
  1881  3.6445e-07  2.8115e-06  6.4590e-07  1.0179e-01  3.5838e-07  0:00:03  119

  iter  continuity  x-velocity  y-velocity  z-velocity      energy     time/iter
  1882  3.6250e-07  2.7889e-06  6.4343e-07  1.0082e-01  3.5644e-07  0:00:26  118
  1883  3.6055e-07  2.7663e-06  6.4099e-07  9.9828e-02  3.5450e-07  0:00:21  117
  1884  3.5860e-07  2.7437e-06  6.3856e-07  9.8796e-02  3.5255e-07  0:00:17  116
  1885  3.5665e-07  2.7212e-06  6.3615e-07  9.7726e-02  3.5061e-07  0:00:13  115
  1886  3.5470e-07  2.6987e-06  6.3376e-07  9.6614e-02  3.4866e-07  0:00:10  114
  1887  3.5275e-07  2.6762e-06  6.3138e-07  9.5530e-02  3.4671e-07  0:00:08  113
  1888  3.5080e-07  2.6538e-06  6.2901e-07  9.4437e-02  3.4477e-07  0:00:07  112
  1889  3.4885e-07  2.6315e-06  6.2666e-07  9.3305e-02  3.4282e-07  0:00:05  111
  1890  3.4690e-07  2.6092e-06  6.2431e-07  9.2146e-02  3.4088e-07  0:00:04  110
  1891  3.4496e-07  2.5871e-06  6.2197e-07  9.0986e-02  3.3894e-07  0:00:03  109
  1892  3.4302e-07  2.5650e-06  6.1964e-07  8.9804e-02  3.3701e-07  0:00:03  108

  iter  continuity  x-velocity  y-velocity  z-velocity      energy     time/iter
  1893  3.4109e-07  2.5431e-06  6.1731e-07  8.8631e-02  3.3508e-07  0:00:02  107
  1894  3.3916e-07  2.5213e-06  6.1498e-07  8.7434e-02  3.3317e-07  0:00:23  106
  1895  3.3725e-07  2.4996e-06  6.1265e-07  8.6233e-02  3.3126e-07  0:00:18  105
  1896  3.3534e-07  2.4780e-06  6.1031e-07  8.5082e-02  3.2936e-07  0:00:14  104
  1897  3.3345e-07  2.4566e-06  6.0798e-07  8.3922e-02  3.2747e-07  0:00:11  103
  1898  3.3157e-07  2.4353e-06  6.0564e-07  8.2750e-02  3.2560e-07  0:00:09  102
  1899  3.2970e-07  2.4141e-06  6.0330e-07  8.1577e-02  3.2374e-07  0:00:07  101
  1900  3.2785e-07  2.3931e-06  6.0095e-07  8.0409e-02  3.2189e-07  0:00:06  100
  1901  3.2601e-07  2.3723e-06  5.9860e-07  7.9239e-02  3.2006e-07  0:00:04   99
  1902  3.2419e-07  2.3516e-06  5.9625e-07  7.8060e-02  3.1825e-07  0:00:04   98
  1903  3.2239e-07  2.3311e-06  5.9389e-07  7.6859e-02  3.1646e-07  0:00:03   97

  iter  continuity  x-velocity  y-velocity  z-velocity      energy     time/iter
  1904  3.2061e-07  2.3108e-06  5.9153e-07  7.5648e-02  3.1469e-07  0:00:02   96
  1905  3.1884e-07  2.2906e-06  5.8917e-07  7.4427e-02  3.1293e-07  0:00:02   95
  1906  3.1710e-07  2.2706e-06  5.8680e-07  7.3192e-02  3.1120e-07  0:00:20   94
  1907  3.1538e-07  2.2508e-06  5.8444e-07  7.1946e-02  3.0948e-07  0:00:16   93
  1908  3.1367e-07  2.2312e-06  5.8208e-07  7.0688e-02  3.0778e-07  0:00:13   92
  1909  3.1199e-07  2.2117e-06  5.7972e-07  6.9419e-02  3.0611e-07  0:00:10   91
  1910  3.1032e-07  2.1924e-06  5.7737e-07  6.8141e-02  3.0445e-07  0:00:08   90
  1911  3.0867e-07  2.1733e-06  5.7502e-07  6.6861e-02  3.0281e-07  0:00:06   89
  1912  3.0704e-07  2.1544e-06  5.7268e-07  6.5578e-02  3.0119e-07  0:00:05   88
  1913  3.0542e-07  2.1357e-06  5.7035e-07  6.4297e-02  2.9959e-07  0:00:04   87
  1914  3.0383e-07  2.1171e-06  5.6803e-07  6.3020e-02  2.9800e-07  0:00:03   86

  iter  continuity  x-velocity  y-velocity  z-velocity      energy     time/iter
  1915  3.0224e-07  2.0988e-06  5.6572e-07  6.1750e-02  2.9643e-07  0:00:02   85
  1916  3.0068e-07  2.0806e-06  5.6342e-07  6.0490e-02  2.9487e-07  0:00:02   84
  1917  2.9912e-07  2.0626e-06  5.6114e-07  5.9242e-02  2.9332e-07  0:00:02   83
  1918  2.9758e-07  2.0448e-06  5.5887e-07  5.8011e-02  2.9179e-07  0:00:01   82
  1919  2.9605e-07  2.0272e-06  5.5662e-07  5.6796e-02  2.9027e-07  0:00:17   81
  1920  2.9453e-07  2.0097e-06  5.5438e-07  5.5601e-02  2.8876e-07  0:00:14   80
  1921  2.9302e-07  1.9924e-06  5.5216e-07  5.4429e-02  2.8726e-07  0:00:11   79
  1922  2.9152e-07  1.9753e-06  5.4995e-07  5.3278e-02  2.8577e-07  0:00:08   78
  1923  2.9003e-07  1.9584e-06  5.4776e-07  5.2150e-02  2.8429e-07  0:00:07   77
  1924  2.8854e-07  1.9417e-06  5.4559e-07  5.1047e-02  2.8282e-07  0:00:05   76
  1925  2.8706e-07  1.9251e-06  5.4342e-07  4.9967e-02  2.8135e-07  0:00:04   75

  iter  continuity  x-velocity  y-velocity  z-velocity      energy     time/iter
  1926  2.8559e-07  1.9087e-06  5.4128e-07  4.8912e-02  2.7989e-07  0:00:03   74
  1927  2.8413e-07  1.8925e-06  5.3914e-07  4.7883e-02  2.7844e-07  0:00:03   73
  1928  2.8267e-07  1.8765e-06  5.3702e-07  4.6878e-02  2.7700e-07  0:00:02   72
  1929  2.8122e-07  1.8606e-06  5.3490e-07  4.5898e-02  2.7556e-07  0:00:02   71
  1930  2.7978e-07  1.8449e-06  5.3280e-07  4.4944e-02  2.7413e-07  0:00:01   70
  1931  2.7835e-07  1.8293e-06  5.3070e-07  4.4017e-02  2.7271e-07  0:00:15   69
  1932  2.7692e-07  1.8139e-06  5.2861e-07  4.3115e-02  2.7130e-07  0:00:12   68
  1933  2.7551e-07  1.7987e-06  5.2653e-07  4.2246e-02  2.6990e-07  0:00:09   67
  1934  2.7410e-07  1.7836e-06  5.2445e-07  4.1398e-02  2.6850e-07  0:00:07   66
  1935  2.7271e-07  1.7687e-06  5.2237e-07  4.0571e-02  2.6712e-07  0:00:06   65
  1936  2.7132e-07  1.7539e-06  5.2030e-07  3.9764e-02  2.6575e-07  0:00:04   64

  iter  continuity  x-velocity  y-velocity  z-velocity      energy     time/iter
  1937  2.6995e-07  1.7392e-06  5.1823e-07  3.8975e-02  2.6439e-07  0:00:04   63
  1938  2.6860e-07  1.7247e-06  5.1616e-07  3.8204e-02  2.6305e-07  0:00:03   62
  1939  2.6725e-07  1.7104e-06  5.1409e-07  3.7450e-02  2.6172e-07  0:00:02   61
  1940  2.6593e-07  1.6962e-06  5.1202e-07  3.6714e-02  2.6041e-07  0:00:02   60
  1941  2.6462e-07  1.6821e-06  5.0995e-07  3.5994e-02  2.5911e-07  0:00:01   59
  1942  2.6332e-07  1.6681e-06  5.0789e-07  3.5291e-02  2.5784e-07  0:00:01   58
  1943  2.6205e-07  1.6543e-06  5.0582e-07  3.4604e-02  2.5657e-07  0:00:12   57
  1944  2.6079e-07  1.6406e-06  5.0375e-07  3.3931e-02  2.5533e-07  0:00:10   56
  1945  2.5956e-07  1.6270e-06  5.0169e-07  3.3274e-02  2.5411e-07  0:00:08   55
  1946  2.5834e-07  1.6136e-06  4.9963e-07  3.2631e-02  2.5291e-07  0:00:06   54
  1947  2.5714e-07  1.6002e-06  4.9757e-07  3.2011e-02  2.5172e-07  0:00:05   53

  iter  continuity  x-velocity  y-velocity  z-velocity      energy     time/iter
  1948  2.5596e-07  1.5870e-06  4.9552e-07  3.1418e-02  2.5056e-07  0:00:04   52
  1949  2.5481e-07  1.5740e-06  4.9347e-07  3.0845e-02  2.4942e-07  0:00:03   51
  1950  2.5367e-07  1.5610e-06  4.9143e-07  3.0287e-02  2.4829e-07  0:00:02   50
  1951  2.5255e-07  1.5481e-06  4.8940e-07  2.9739e-02  2.4719e-07  0:00:02   49
  1952  2.5145e-07  1.5354e-06  4.8738e-07  2.9203e-02  2.4610e-07  0:00:01   48
  1953  2.5036e-07  1.5228e-06  4.8537e-07  2.8677e-02  2.4503e-07  0:00:01   47
  1954  2.4930e-07  1.5102e-06  4.8337e-07  2.8161e-02  2.4398e-07  0:00:01   46
  1955  2.4825e-07  1.4978e-06  4.8139e-07  2.7653e-02  2.4294e-07  0:00:01   45
  1956  2.4721e-07  1.4856e-06  4.7942e-07  2.7154e-02  2.4192e-07  0:00:09   44
  1957  2.4619e-07  1.4734e-06  4.7747e-07  2.6664e-02  2.4091e-07  0:00:07   43
  1958  2.4518e-07  1.4613e-06  4.7554e-07  2.6183e-02  2.3992e-07  0:00:06   42

  iter  continuity  x-velocity  y-velocity  z-velocity      energy     time/iter
  1959  2.4418e-07  1.4493e-06  4.7362e-07  2.5712e-02  2.3893e-07  0:00:04   41
  1960  2.4319e-07  1.4374e-06  4.7173e-07  2.5251e-02  2.3796e-07  0:00:03   40
  1961  2.4221e-07  1.4257e-06  4.6985e-07  2.4801e-02  2.3699e-07  0:00:03   39
  1962  2.4124e-07  1.4140e-06  4.6799e-07  2.4360e-02  2.3603e-07  0:00:02   38
  1963  2.4027e-07  1.4025e-06  4.6616e-07  2.3930e-02  2.3508e-07  0:00:02   37
  1964  2.3931e-07  1.3910e-06  4.6434e-07  2.3511e-02  2.3413e-07  0:00:01   36
  1965  2.3835e-07  1.3796e-06  4.6254e-07  2.3101e-02  2.3319e-07  0:00:01   35
  1966  2.3739e-07  1.3684e-06  4.6077e-07  2.2701e-02  2.3224e-07  0:00:08   34
  1967  2.3644e-07  1.3572e-06  4.5901e-07  2.2308e-02  2.3130e-07  0:00:06   33
  1968  2.3548e-07  1.3462e-06  4.5727e-07  2.1924e-02  2.3036e-07  0:00:05   32
  1969  2.3453e-07  1.3352e-06  4.5555e-07  2.1548e-02  2.2942e-07  0:00:04   31

  iter  continuity  x-velocity  y-velocity  z-velocity      energy     time/iter
  1970  2.3357e-07  1.3243e-06  4.5384e-07  2.1179e-02  2.2848e-07  0:00:03   30
  1971  2.3262e-07  1.3135e-06  4.5215e-07  2.0819e-02  2.2754e-07  0:00:02   29
  1972  2.3166e-07  1.3028e-06  4.5048e-07  2.0466e-02  2.2660e-07  0:00:02   28
  1973  2.3070e-07  1.2922e-06  4.4882e-07  2.0121e-02  2.2565e-07  0:00:01   27
  1974  2.2974e-07  1.2817e-06  4.4717e-07  1.9784e-02  2.2471e-07  0:00:01   26
  1975  2.2878e-07  1.2713e-06  4.4553e-07  1.9455e-02  2.2376e-07  0:00:01   25
  1976  2.2781e-07  1.2609e-06  4.4390e-07  1.9133e-02  2.2281e-07  0:00:01   24
  1977  2.2685e-07  1.2507e-06  4.4228e-07  1.8819e-02  2.2186e-07  0:00:00   23
  1978  2.2588e-07  1.2405e-06  4.4067e-07  1.8512e-02  2.2090e-07  0:00:05   22
  1979  2.2491e-07  1.2304e-06  4.3906e-07  1.8212e-02  2.1995e-07  0:00:04   21
  1980  2.2394e-07  1.2204e-06  4.3745e-07  1.7920e-02  2.1899e-07  0:00:03   20

  iter  continuity  x-velocity  y-velocity  z-velocity      energy     time/iter
  1981  2.2296e-07  1.2104e-06  4.3585e-07  1.7634e-02  2.1803e-07  0:00:02   19
  1982  2.2199e-07  1.2006e-06  4.3426e-07  1.7354e-02  2.1708e-07  0:00:02   18
  1983  2.2102e-07  1.1908e-06  4.3266e-07  1.7081e-02  2.1612e-07  0:00:01   17
  1984  2.2005e-07  1.1811e-06  4.3107e-07  1.6814e-02  2.1516e-07  0:00:01   16
  1985  2.1908e-07  1.1715e-06  4.2947e-07  1.6553e-02  2.1421e-07  0:00:01   15
  1986  2.1811e-07  1.1619e-06  4.2788e-07  1.6298e-02  2.1325e-07  0:00:01   14
  1987  2.1714e-07  1.1525e-06  4.2628e-07  1.6047e-02  2.1230e-07  0:00:00   13
  1988  2.1617e-07  1.1431e-06  4.2468e-07  1.5801e-02  2.1134e-07  0:00:00   12
  1989  2.1520e-07  1.1337e-06  4.2309e-07  1.5560e-02  2.1039e-07  0:00:00   11
  1990  2.1424e-07  1.1245e-06  4.2149e-07  1.5324e-02  2.0945e-07  0:00:02   10
  1991  2.1328e-07  1.1153e-06  4.1988e-07  1.5093e-02  2.0850e-07  0:00:02    9

  iter  continuity  x-velocity  y-velocity  z-velocity      energy     time/iter
  1992  2.1233e-07  1.1062e-06  4.1828e-07  1.4866e-02  2.0756e-07  0:00:01    8
  1993  2.1137e-07  1.0972e-06  4.1667e-07  1.4645e-02  2.0662e-07  0:00:01    7
  1994  2.1042e-07  1.0882e-06  4.1507e-07  1.4428e-02  2.0569e-07  0:00:01    6
  1995  2.0947e-07  1.0793e-06  4.1346e-07  1.4217e-02  2.0476e-07  0:00:00    5
  1996  2.0853e-07  1.0704e-06  4.1185e-07  1.4010e-02  2.0383e-07  0:00:00    4
  1997  2.0759e-07  1.0617e-06  4.1023e-07  1.3807e-02  2.0290e-07  0:00:00    3
  1998  2.0666e-07  1.0530e-06  4.0862e-07  1.3609e-02  2.0198e-07  0:00:00    2
  1999  2.0572e-07  1.0444e-06  4.0700e-07  1.3416e-02  2.0107e-07  0:00:00    1
  2000  2.0480e-07  1.0358e-06  4.0539e-07  1.3226e-02  2.0016e-07  0:00:00    0

> 
adjoint/                parallel/               server/
define/                 parametric-study/       solve/
display/                plot/                   surface/
exit                    preferences/            turbo-workflow/
file/                   print-license-usage     views/
mesh/                   report/

> /file/write-case-data project1
Fast-loading "C:\PROGRA~1\ANSYSI~1\v231\fluent\fluent23.1.0\\addons\afd\lib\hdfio.bin"
Done.

Writing to Engs-30669:"C:\Users\kebl7595\Desktop\CFD\Runs\Actual Data\9 degrees\project1.cas.h5" in NODE0 mode and compression level 1 ...
       12996 cells,     1 zone  ...
       43722 faces,     8 zones ...
       17864 nodes,     1 zone  ...
  Done.
Done.

Writing to Engs-30669:"C:\Users\kebl7595\Desktop\CFD\Runs\Actual Data\9 degrees\project1.dat.h5" in NODE0 mode and compression level 1 ...
  Writing results.
Done.

> /file/export/ascii "./surface.dat" wing te () no pressure mach-number quit no

Writing "./surface.dat"...

Writing information to ascii file ...
Done.


> /plot/plot y "data.dat" no n n pressure-coefficient no n x-coordinate wing ()

> /report/forces/wall-forces y -0.15643 0.98769 0 y "Force"

> /exit

Posting ANSYS Product Improvement Program performance data 
Done.
Auto-Transcript Stop Time:  14:43:48, 20 May 2024 GMT Daylight Time 
Total Transcript Time: 4 Minute 10 Second.
